/*---------------------------------------------------------------------------*\
| =========                 |                                                 |
| \\      /  F ield         | OpenFOAM: The Open Source CFD Toolbox           |
|  \\    /   O peration     | Version:  2412                                  |
|   \\  /    A nd           | Website:  www.openfoam.com                      |
|    \\/     M anipulation  |                                                 |
\*---------------------------------------------------------------------------*/
Build  : _e5c6ccc3-20250814 OPENFOAM=2412 patch=250814 version=2412
Arch   : "LSB;label=32;scalar=64"
Exec   : checkMesh
Date   : Jan 05 2026
Time   : 20:31:05
Host   : LAPTOP-FVD4ED85
PID    : 2553
I/O    : uncollated
Case   : /home/ericy/Rocket_CFD_ML/openfoam/combined_test_workflow
nProcs : 1
trapFpe: Floating point exception trapping enabled (FOAM_SIGFPE).
fileModificationChecking : Monitoring run-time modified files using timeStampMaster (fileModificationSkew 5, maxFileModificationPolls 20)
allowSystemOperations : Allowing user-supplied system call operations

// * * * * * * * * * * * * * * * * * * * * * * * * * * * * * * * * * * * * * //
Create time

Create mesh for time = 0

Check mesh...

Time = 0

Mesh stats 
    points:           147614
    faces:            395449
    internal faces:   379149
    cells:            124215
    faces per cell:   6.23595
    boundary patches: 4
    point zones:      1
    face zones:       0
    cell zones:       0

Overall number of cells of each type:
    hexahedra:     109204
    prisms:        2760
    wedges:        0
    pyramids:      0
    tet wedges:    0
    tetrahedra:    0
    polyhedra:     12251
    Breakdown of polyhedra by number of faces:
        faces   number of cells
            4   327
            5   302
            6   3898
            9   4862
           12   2440
           15   422

Checking topology...
    Boundary definition OK.
    Cell to face addressing OK.
    Point usage OK.
    Upper triangular ordering OK.
    Face vertices OK.
    Number of regions: 1 (OK).

Checking patch topology for multiply connected surfaces...
                   Patch    Faces   Points  Surface topology
                   inlet      400      441  ok (non-closed singly connected)
                  outlet      400      441  ok (non-closed singly connected)
              atmosphere     3200     3280  ok (non-closed singly connected)
                  rocket    12300    12741      ok (closed singly connected)
                    ".*"    16300    16743      ok (closed singly connected)


Checking faceZone topology for multiply connected surfaces...
    No faceZones found.

Checking basic cellZone addressing...
    No cellZones found.

Checking basic pointZone addressing...
               PointZone  PointsBoundingBox
            frozenPoints       0(1e+150 1e+150 1e+150) (-1e+150 -1e+150 -1e+150)

Checking geometry...
    Overall domain bounding box (-25 -25 -100) (25 25 30)
    Mesh has 3 geometric (non-empty/wedge) directions (1 1 1)
    Mesh has 3 solution (non-empty) directions (1 1 1)
    Boundary openness (1.96826e-20 -1.45569e-17 2.93736e-17) OK.
    Max cell openness = 3.51409e-16 OK.
    Max aspect ratio = 5.08248 OK.
    Minimum face area = 0.00103783. Maximum face area = 8.12542.  Face area magnitudes OK.
    Min volume = 0.000156522. Max volume = 20.3135.  Total volume = 324964.  Cell volumes OK.
    Mesh non-orthogonality Max: 46.1109 average: 9.60255
    Non-orthogonality check OK.
    Face pyramids OK.
    Max skewness = 3.48774 OK.
    Coupled point location match (average 0) OK.

Mesh OK.

End

