/*---------------------------------------------------------------------------*\
| =========                 |                                                 |
| \\      /  F ield         | OpenFOAM: The Open Source CFD Toolbox           |
|  \\    /   O peration     | Version:  2412                                  |
|   \\  /    A nd           | Website:  www.openfoam.com                      |
|    \\/     M anipulation  |                                                 |
\*---------------------------------------------------------------------------*/
Build  : _e5c6ccc3-20250814 OPENFOAM=2412 patch=250814 version=2412
Arch   : "LSB;label=32;scalar=64"
Exec   : reconstructPar -time 1234
Date   : Jan 06 2026
Time   : 20:21:19
Host   : LAPTOP-FVD4ED85
PID    : 9387
I/O    : uncollated
Case   : /home/ericy/Rocket_CFD_ML/openfoam/combined_test_workflow
nProcs : 1
trapFpe: Floating point exception trapping enabled (FOAM_SIGFPE).
fileModificationChecking : Monitoring run-time modified files using timeStampMaster (fileModificationSkew 5, maxFileModificationPolls 20)
allowSystemOperations : Allowing user-supplied system call operations

// * * * * * * * * * * * * * * * * * * * * * * * * * * * * * * * * * * * * * //
Create time



Reconstructing fields
region=region0

Time = 1234

Reconstructing FV fields

    Reconstructing volScalarFields

        T.compressible
        T.orig
        alphat
        e
        k
        nut
        omega
        p
        p.compressible
        p.incompressible

    Reconstructing volVectorFields

        U
        U.coldStart
        U.noSlip
        U.slip

Reconstructing point fields

No point fields

No lagrangian fields

No FA fields


End

