/*---------------------------------------------------------------------------*\
| =========                 |                                                 |
| \\      /  F ield         | OpenFOAM: The Open Source CFD Toolbox           |
|  \\    /   O peration     | Version:  2412                                  |
|   \\  /    A nd           | Website:  www.openfoam.com                      |
|    \\/     M anipulation  |                                                 |
\*---------------------------------------------------------------------------*/
Build  : _e5c6ccc3-20250814 OPENFOAM=2412 patch=250814 version=2412
Arch   : "LSB;label=32;scalar=64"
Exec   : decomposePar
Date   : Jan 05 2026
Time   : 21:46:13
Host   : LAPTOP-FVD4ED85
PID    : 3896
I/O    : uncollated
Case   : /home/ericy/Rocket_CFD_ML/openfoam/combined_test_workflow
nProcs : 1
trapFpe: Floating point exception trapping enabled (FOAM_SIGFPE).
fileModificationChecking : Monitoring run-time modified files using timeStampMaster (fileModificationSkew 5, maxFileModificationPolls 20)
allowSystemOperations : Allowing user-supplied system call operations

// * * * * * * * * * * * * * * * * * * * * * * * * * * * * * * * * * * * * * //
Create time



Decomposing mesh

Create mesh

Calculating distribution of cells
Decomposition method scotch [4] (region region0)

Finished decomposition in 0.25 s

Calculating original mesh data

Distributing cells to processors

Distributing faces to processors

Distributing points to processors

Constructing processor meshes
Reading hexRef8 data : cellLevel
Reading hexRef8 data : pointLevel
Reading hexRef8 data : level0Edge

Processor 0
    Number of cells = 30846
    Number of points = 37749
    Number of faces shared with processor 1 = 1545
    Number of faces shared with processor 2 = 547
    Number of faces shared with processor 3 = 590
    Number of processor patches = 3
    Number of processor faces = 2682
    Number of boundary faces = 3809

Processor 1
    Number of cells = 31192
    Number of points = 38388
    Number of faces shared with processor 0 = 1545
    Number of faces shared with processor 2 = 395
    Number of faces shared with processor 3 = 406
    Number of processor patches = 3
    Number of processor faces = 2346
    Number of boundary faces = 4958

Processor 2
    Number of cells = 30991
    Number of points = 38405
    Number of faces shared with processor 0 = 547
    Number of faces shared with processor 1 = 395
    Number of faces shared with processor 3 = 1390
    Number of processor patches = 3
    Number of processor faces = 2332
    Number of boundary faces = 3846

Processor 3
    Number of cells = 31186
    Number of points = 38684
    Number of faces shared with processor 0 = 590
    Number of faces shared with processor 1 = 406
    Number of faces shared with processor 2 = 1390
    Number of processor patches = 3
    Number of processor faces = 2386
    Number of boundary faces = 3687

Number of processor faces = 4873
Max number of cells = 31192 (0.445196% above average 31053.8)
Max number of processor patches = 3 (0% above average 3)
Max number of faces between processors = 2682 (10.0759% above average 2436.5)

Time = 0

Processor 0: field transfer
Processor 1: field transfer
Processor 2: field transfer
Processor 3: field transfer

End

