/*---------------------------------------------------------------------------*\
| =========                 |                                                 |
| \\      /  F ield         | OpenFOAM: The Open Source CFD Toolbox           |
|  \\    /   O peration     | Version:  2412                                  |
|   \\  /    A nd           | Website:  www.openfoam.com                      |
|    \\/     M anipulation  |                                                 |
\*---------------------------------------------------------------------------*/
Build  : _e5c6ccc3-20250814 OPENFOAM=2412 patch=250814 version=2412
Arch   : "LSB;label=32;scalar=64"
Exec   : reconstructPar -latestTime
Date   : Jan 02 2026
Time   : 19:32:27
Host   : LAPTOP-FVD4ED85
PID    : 3780
I/O    : uncollated
Case   : /home/ericy/Rocket_CFD_ML/openfoam/combined_test_workflow
nProcs : 1
trapFpe: Floating point exception trapping enabled (FOAM_SIGFPE).
fileModificationChecking : Monitoring run-time modified files using timeStampMaster (fileModificationSkew 5, maxFileModificationPolls 20)
allowSystemOperations : Allowing user-supplied system call operations

// * * * * * * * * * * * * * * * * * * * * * * * * * * * * * * * * * * * * * //
Create time



Reconstructing fields
region=region0

Time = 430

Reconstructing FV fields

    Reconstructing volScalarFields

        k
        nut
        omega
        p

    Reconstructing volVectorFields

        U

    Reconstructing surfaceScalarFields

        phi

Reconstructing point fields

No point fields

No lagrangian fields

No FA fields


End

