/*---------------------------------------------------------------------------*\
| =========                 |                                                 |
| \\      /  F ield         | OpenFOAM: The Open Source CFD Toolbox           |
|  \\    /   O peration     | Version:  2412                                  |
|   \\  /    A nd           | Website:  www.openfoam.com                      |
|    \\/     M anipulation  |                                                 |
\*---------------------------------------------------------------------------*/
Build  : _e5c6ccc3-20250814 OPENFOAM=2412 patch=250814 version=2412
Arch   : "LSB;label=32;scalar=64"
Exec   : rhoCentralFoam -parallel
Date   : Jan 05 2026
Time   : 21:46:14
Host   : LAPTOP-FVD4ED85
PID    : 3901
I/O    : uncollated
Case   : /home/ericy/Rocket_CFD_ML/openfoam/combined_test_workflow
nProcs : 4
Hosts  :
(
    (LAPTOP-FVD4ED85 4)
)
Pstream initialized with:
    floatTransfer      : false
    maxCommsSize       : 0
    nProcsSimpleSum    : 0
    nonBlockingExchange: 0 (tuning: 0)
    exchange algorithm : 0
    commsType          : nonBlocking
    polling iterations : 0
trapFpe: Floating point exception trapping enabled (FOAM_SIGFPE).
fileModificationChecking : Monitoring run-time modified files using timeStampMaster (fileModificationSkew 5, maxFileModificationPolls 20)
allowSystemOperations : Allowing user-supplied system call operations

// * * * * * * * * * * * * * * * * * * * * * * * * * * * * * * * * * * * * * //
Create time

Create mesh for time = 0

Reading thermophysical properties

Selecting thermodynamics package 
{
    type            hePsiThermo;
    mixture         pureMixture;
    transport       sutherland;
    thermo          hConst;
    equationOfState perfectGas;
    specie          specie;
    energy          sensibleInternalEnergy;
}

Reading field U

Creating turbulence model

Selecting turbulence model type RAS
Selecting RAS turbulence model kOmegaSST
Selecting patchDistMethod meshWave
RAS
{
    model           kOmegaSST;
    turbulence      on;
    printCoeffs     on;
    alphaK1         0.85;
    alphaK2         1;
    alphaOmega1     0.5;
    alphaOmega2     0.856;
    gamma1          0.555556;
    gamma2          0.44;
    beta1           0.075;
    beta2           0.0828;
    betaStar        0.09;
    a1              0.31;
    b1              1;
    c1              10;
    F3              false;
    decayControl    false;
    kInf            0;
    omegaInf        0;
}

Creating finite volume options from "system/fvOptions"

Selecting finite volume options type limitTemperature
    Source: limitT
    - selecting all cells
    - selected 124215 cell(s) with volume 324964

Starting time loop

forceCoeffs forces:
    p: p
    U: U
    rho: rho
    Not including porosity effects
    magUInf: 500
    lRef   : 1
    Aref   : 3.14
    rhoInf : 1.225
    Selecting all coefficients
    - Drag force: Cd
    - Drag force front: Cd(f)
    - Drag force rear: Cd(r)
    - Lift force: Cl
    - Lift force front: Cl(f)
    - Lift force rear: Cl(r)
    - Pitch moment: CmPitch
    - Roll moment: CmRoll
    - Yaw moment: CmYaw
    - Side force: Cs
    - Side force front: Cs(f)
    - Side force rear: Cs(r)


deltaT = 1.20048e-06
Mean and max Courant Numbers = 0.000371824 0.023349
Time = 1.20048e-06

diagonal:  Solving for rho, Initial residual = 0, Final residual = 0, No Iterations 0
diagonal:  Solving for rhoUx, Initial residual = 0, Final residual = 0, No Iterations 0
diagonal:  Solving for rhoUy, Initial residual = 0, Final residual = 0, No Iterations 0
diagonal:  Solving for rhoUz, Initial residual = 0, Final residual = 0, No Iterations 0
smoothSolver:  Solving for Ux, Initial residual = 1, Final residual = 4.94448e-05, No Iterations 1
smoothSolver:  Solving for Uy, Initial residual = 1, Final residual = 4.91832e-05, No Iterations 1
smoothSolver:  Solving for Uz, Initial residual = 0.999993, Final residual = 5.48454e-05, No Iterations 1
diagonal:  Solving for rhoE, Initial residual = 0, Final residual = 0, No Iterations 0
smoothSolver:  Solving for e, Initial residual = 3.92743e-08, Final residual = 3.92743e-08, No Iterations 0
smoothSolver:  Solving for omega, Initial residual = 2.93081e-07, Final residual = 2.93081e-07, No Iterations 0
smoothSolver:  Solving for k, Initial residual = 1, Final residual = 0.000135797, No Iterations 1
ExecutionTime = 0.44 s  ClockTime = 1 s

--> FOAM Warning : 
    From virtual bool Foam::functionObjects::fieldSelection::checkSelection()
    in file functionObjects/fieldSelections/fieldSelection/fieldSelection.C at line 179
    Field p not found
--> FOAM Warning : 
    From virtual bool Foam::functionObjects::solverFieldSelection::updateSelection()
    in file functionObjects/fieldSelections/solverFieldSelection/solverFieldSelection.C at line 82
    Valid solver fields are: 7(U e k omega rho rhoE rhoU)deltaT = 1.44127e-06
Mean and max Courant Numbers = 0.000446404 0.0280511
Time = 2.64175e-06

diagonal:  Solving for rho, Initial residual = 0, Final residual = 0, No Iterations 0
diagonal:  Solving for rhoUx, Initial residual = 0, Final residual = 0, No Iterations 0
diagonal:  Solving for rhoUy, Initial residual = 0, Final residual = 0, No Iterations 0
diagonal:  Solving for rhoUz, Initial residual = 0, Final residual = 0, No Iterations 0
smoothSolver:  Solving for Ux, Initial residual = 9.45403e-06, Final residual = 1.3751e-10, No Iterations 1
smoothSolver:  Solving for Uy, Initial residual = 5.31315e-05, Final residual = 7.74298e-10, No Iterations 1
smoothSolver:  Solving for Uz, Initial residual = 1.23061e-05, Final residual = 1.92053e-10, No Iterations 1
diagonal:  Solving for rhoE, Initial residual = 0, Final residual = 0, No Iterations 0
smoothSolver:  Solving for e, Initial residual = 1.90426e-08, Final residual = 1.90426e-08, No Iterations 0
--> FOAM Warning : 
    From virtual void Foam::fv::option::checkApplied() const
    in file cfdTools/general/fvOptions/fvOption.C at line 137
    Source limitT defined for field e but never used
--> FOAM Warning : 
    From virtual void Foam::fv::option::checkApplied() const
    in file cfdTools/general/fvOptions/fvOption.C at line 137
    Source limitT defined for field e but never used
smoothSolver:  Solving for omega, Initial residual = 3.51144e-07, Final residual = 3.51144e-07, No Iterations 0
--> FOAM Warning : 
    From virtual void Foam::fv::option::checkApplied() const
    in file cfdTools/general/fvOptions/fvOption.C at line 137
    Source limitT defined for field e but never used
--> FOAM Warning : 
    From virtual void Foam::fv::option::checkApplied() const
    in file cfdTools/general/fvOptions/fvOption.C at line 137
    Source limitT defined for field e but never used
smoothSolver:  Solving for k, Initial residual = 0.102797, Final residual = 1.67435e-05, No Iterations 1
ExecutionTime = 0.64 s  ClockTime = 1 s

deltaT = 1.72852e-06
Mean and max Courant Numbers = 0.000535375 0.0336688
Time = 4.37027e-06

diagonal:  Solving for rho, Initial residual = 0, Final residual = 0, No Iterations 0
diagonal:  Solving for rhoUx, Initial residual = 0, Final residual = 0, No Iterations 0
diagonal:  Solving for rhoUy, Initial residual = 0, Final residual = 0, No Iterations 0
diagonal:  Solving for rhoUz, Initial residual = 0, Final residual = 0, No Iterations 0
smoothSolver:  Solving for Ux, Initial residual = 3.35487e-06, Final residual = 6.46717e-11, No Iterations 1
smoothSolver:  Solving for Uy, Initial residual = 1.84609e-05, Final residual = 3.56355e-10, No Iterations 1
smoothSolver:  Solving for Uz, Initial residual = 4.3158e-06, Final residual = 6.73242e-11, No Iterations 1
diagonal:  Solving for rhoE, Initial residual = 0, Final residual = 0, No Iterations 0
smoothSolver:  Solving for e, Initial residual = 2.30716e-08, Final residual = 2.30716e-08, No Iterations 0
smoothSolver:  Solving for omega, Initial residual = 4.21406e-07, Final residual = 4.21406e-07, No Iterations 0
smoothSolver:  Solving for k, Initial residual = 0.0540956, Final residual = 1.0567e-05, No Iterations 1
ExecutionTime = 0.83 s  ClockTime = 1 s

deltaT = 2.07423e-06
Mean and max Courant Numbers = 0.000642451 0.040441
Time = 6.4445e-06

diagonal:  Solving for rho, Initial residual = 0, Final residual = 0, No Iterations 0
diagonal:  Solving for rhoUx, Initial residual = 0, Final residual = 0, No Iterations 0
diagonal:  Solving for rhoUy, Initial residual = 0, Final residual = 0, No Iterations 0
diagonal:  Solving for rhoUz, Initial residual = 0, Final residual = 0, No Iterations 0
smoothSolver:  Solving for Ux, Initial residual = 1.87396e-06, Final residual = 5.05353e-11, No Iterations 1
smoothSolver:  Solving for Uy, Initial residual = 1.00611e-05, Final residual = 2.71498e-10, No Iterations 1
smoothSolver:  Solving for Uz, Initial residual = 2.20788e-06, Final residual = 5.68041e-11, No Iterations 1
diagonal:  Solving for rhoE, Initial residual = 0, Final residual = 0, No Iterations 0
smoothSolver:  Solving for e, Initial residual = 2.79681e-08, Final residual = 2.79681e-08, No Iterations 0
smoothSolver:  Solving for omega, Initial residual = 5.0612e-07, Final residual = 5.0612e-07, No Iterations 0
smoothSolver:  Solving for k, Initial residual = 0.0364, Final residual = 8.53314e-06, No Iterations 1
ExecutionTime = 1.02 s  ClockTime = 1 s

deltaT = 2.49011e-06
Mean and max Courant Numbers = 0.000771263 0.0486044
Time = 8.93462e-06

diagonal:  Solving for rho, Initial residual = 0, Final residual = 0, No Iterations 0
diagonal:  Solving for rhoUx, Initial residual = 0, Final residual = 0, No Iterations 0
diagonal:  Solving for rhoUy, Initial residual = 0, Final residual = 0, No Iterations 0
diagonal:  Solving for rhoUz, Initial residual = 0, Final residual = 0, No Iterations 0
smoothSolver:  Solving for Ux, Initial residual = 1.33329e-06, Final residual = 4.79098e-11, No Iterations 1
smoothSolver:  Solving for Uy, Initial residual = 6.94715e-06, Final residual = 2.49498e-10, No Iterations 1
smoothSolver:  Solving for Uz, Initial residual = 1.33721e-06, Final residual = 3.4378e-11, No Iterations 1
diagonal:  Solving for rhoE, Initial residual = 0, Final residual = 0, No Iterations 0
smoothSolver:  Solving for e, Initial residual = 3.17959e-08, Final residual = 3.17959e-08, No Iterations 0
smoothSolver:  Solving for omega, Initial residual = 6.08229e-07, Final residual = 6.08229e-07, No Iterations 0
smoothSolver:  Solving for k, Initial residual = 0.0270993, Final residual = 7.62801e-06, No Iterations 1
ExecutionTime = 1.22 s  ClockTime = 1 s

deltaT = 2.98514e-06
Mean and max Courant Numbers = 0.000924586 0.0583449
Time = 1.19198e-05

diagonal:  Solving for rho, Initial residual = 0, Final residual = 0, No Iterations 0
diagonal:  Solving for rhoUx, Initial residual = 0, Final residual = 0, No Iterations 0
diagonal:  Solving for rhoUy, Initial residual = 0, Final residual = 0, No Iterations 0
diagonal:  Solving for rhoUz, Initial residual = 0, Final residual = 0, No Iterations 0
smoothSolver:  Solving for Ux, Initial residual = 1.11483e-06, Final residual = 4.92691e-11, No Iterations 1
smoothSolver:  Solving for Uy, Initial residual = 5.61897e-06, Final residual = 2.48254e-10, No Iterations 1
smoothSolver:  Solving for Uz, Initial residual = 8.91485e-07, Final residual = 8.91485e-07, No Iterations 0
diagonal:  Solving for rhoE, Initial residual = 0, Final residual = 0, No Iterations 0
smoothSolver:  Solving for e, Initial residual = 3.35467e-08, Final residual = 3.35467e-08, No Iterations 0
smoothSolver:  Solving for omega, Initial residual = 7.30099e-07, Final residual = 7.30099e-07, No Iterations 0
smoothSolver:  Solving for k, Initial residual = 0.0212506, Final residual = 7.17302e-06, No Iterations 1
ExecutionTime = 1.42 s  ClockTime = 2 s

deltaT = 3.49145e-06
Mean and max Courant Numbers = 0.00108141 0.0683494
Time = 1.54112e-05

diagonal:  Solving for rho, Initial residual = 0, Final residual = 0, No Iterations 0
diagonal:  Solving for rhoUx, Initial residual = 0, Final residual = 0, No Iterations 0
diagonal:  Solving for rhoUy, Initial residual = 0, Final residual = 0, No Iterations 0
diagonal:  Solving for rhoUz, Initial residual = 0, Final residual = 0, No Iterations 0
smoothSolver:  Solving for Ux, Initial residual = 1.02117e-06, Final residual = 5.48808e-11, No Iterations 1
smoothSolver:  Solving for Uy, Initial residual = 4.95951e-06, Final residual = 2.66185e-10, No Iterations 1
smoothSolver:  Solving for Uz, Initial residual = 6.27871e-07, Final residual = 6.27871e-07, No Iterations 0
diagonal:  Solving for rhoE, Initial residual = 0, Final residual = 0, No Iterations 0
smoothSolver:  Solving for e, Initial residual = 3.47995e-08, Final residual = 3.47995e-08, No Iterations 0
smoothSolver:  Solving for omega, Initial residual = 8.55429e-07, Final residual = 8.55429e-07, No Iterations 0
smoothSolver:  Solving for k, Initial residual = 0.0168085, Final residual = 6.63906e-06, No Iterations 1
ExecutionTime = 1.61 s  ClockTime = 2 s

deltaT = 4.00239e-06
Mean and max Courant Numbers = 0.00123966 0.0784971
Time = 1.94136e-05

diagonal:  Solving for rho, Initial residual = 0, Final residual = 0, No Iterations 0
diagonal:  Solving for rhoUx, Initial residual = 0, Final residual = 0, No Iterations 0
diagonal:  Solving for rhoUy, Initial residual = 0, Final residual = 0, No Iterations 0
diagonal:  Solving for rhoUz, Initial residual = 0, Final residual = 0, No Iterations 0
smoothSolver:  Solving for Ux, Initial residual = 9.75828e-07, Final residual = 9.75828e-07, No Iterations 0
smoothSolver:  Solving for Uy, Initial residual = 4.54647e-06, Final residual = 2.83693e-10, No Iterations 1
smoothSolver:  Solving for Uz, Initial residual = 4.57437e-07, Final residual = 4.57437e-07, No Iterations 0
diagonal:  Solving for rhoE, Initial residual = 0, Final residual = 0, No Iterations 0
smoothSolver:  Solving for e, Initial residual = 3.45192e-08, Final residual = 3.45192e-08, No Iterations 0
smoothSolver:  Solving for omega, Initial residual = 9.82681e-07, Final residual = 9.82681e-07, No Iterations 0
smoothSolver:  Solving for k, Initial residual = 0.0134289, Final residual = 6.08481e-06, No Iterations 1
ExecutionTime = 1.82 s  ClockTime = 2 s

deltaT = 4.51883e-06
Mean and max Courant Numbers = 0.00139962 0.0888128
Time = 2.39324e-05

diagonal:  Solving for rho, Initial residual = 0, Final residual = 0, No Iterations 0
diagonal:  Solving for rhoUx, Initial residual = 0, Final residual = 0, No Iterations 0
diagonal:  Solving for rhoUy, Initial residual = 0, Final residual = 0, No Iterations 0
diagonal:  Solving for rhoUz, Initial residual = 0, Final residual = 0, No Iterations 0
smoothSolver:  Solving for Ux, Initial residual = 9.2532e-07, Final residual = 9.2532e-07, No Iterations 0
smoothSolver:  Solving for Uy, Initial residual = 4.12488e-06, Final residual = 2.88442e-10, No Iterations 1
smoothSolver:  Solving for Uz, Initial residual = 3.4344e-07, Final residual = 3.4344e-07, No Iterations 0
diagonal:  Solving for rhoE, Initial residual = 0, Final residual = 0, No Iterations 0
smoothSolver:  Solving for e, Initial residual = 3.29564e-08, Final residual = 3.29564e-08, No Iterations 0
smoothSolver:  Solving for omega, Initial residual = 1.11216e-06, Final residual = 7.57732e-10, No Iterations 1
smoothSolver:  Solving for k, Initial residual = 0.010862, Final residual = 5.56194e-06, No Iterations 1
ExecutionTime = 2.03 s  ClockTime = 2 s

deltaT = 5.03128e-06
Mean and max Courant Numbers = 0.00155834 0.0991183
Time = 2.89637e-05

diagonal:  Solving for rho, Initial residual = 0, Final residual = 0, No Iterations 0
diagonal:  Solving for rhoUx, Initial residual = 0, Final residual = 0, No Iterations 0
diagonal:  Solving for rhoUy, Initial residual = 0, Final residual = 0, No Iterations 0
diagonal:  Solving for rhoUz, Initial residual = 0, Final residual = 0, No Iterations 0
smoothSolver:  Solving for Ux, Initial residual = 8.69038e-07, Final residual = 8.69038e-07, No Iterations 0
smoothSolver:  Solving for Uy, Initial residual = 3.69363e-06, Final residual = 2.77409e-10, No Iterations 1
smoothSolver:  Solving for Uz, Initial residual = 2.64257e-07, Final residual = 2.64257e-07, No Iterations 0
diagonal:  Solving for rhoE, Initial residual = 0, Final residual = 0, No Iterations 0
smoothSolver:  Solving for e, Initial residual = 2.99169e-08, Final residual = 2.99169e-08, No Iterations 0
smoothSolver:  Solving for omega, Initial residual = 1.23944e-06, Final residual = 9.58653e-10, No Iterations 1
smoothSolver:  Solving for k, Initial residual = 0.00888255, Final residual = 5.06968e-06, No Iterations 1
ExecutionTime = 2.23 s  ClockTime = 2 s

deltaT = 5.08396e-06
Mean and max Courant Numbers = 0.00157466 0.100446
Time = 3.40477e-05

diagonal:  Solving for rho, Initial residual = 0, Final residual = 0, No Iterations 0
diagonal:  Solving for rhoUx, Initial residual = 0, Final residual = 0, No Iterations 0
diagonal:  Solving for rhoUy, Initial residual = 0, Final residual = 0, No Iterations 0
diagonal:  Solving for rhoUz, Initial residual = 0, Final residual = 0, No Iterations 0
smoothSolver:  Solving for Ux, Initial residual = 7.20586e-07, Final residual = 7.20586e-07, No Iterations 0
smoothSolver:  Solving for Uy, Initial residual = 2.92462e-06, Final residual = 2.08086e-10, No Iterations 1
smoothSolver:  Solving for Uz, Initial residual = 1.95266e-07, Final residual = 1.95266e-07, No Iterations 0
diagonal:  Solving for rhoE, Initial residual = 0, Final residual = 0, No Iterations 0
smoothSolver:  Solving for e, Initial residual = 2.49982e-08, Final residual = 2.49982e-08, No Iterations 0
smoothSolver:  Solving for omega, Initial residual = 1.25368e-06, Final residual = 9.99267e-10, No Iterations 1
smoothSolver:  Solving for k, Initial residual = 0.00674823, Final residual = 3.89734e-06, No Iterations 1
ExecutionTime = 2.44 s  ClockTime = 3 s

deltaT = 5.05734e-06
Mean and max Courant Numbers = 0.00156641 0.100217
Time = 3.9105e-05

diagonal:  Solving for rho, Initial residual = 0, Final residual = 0, No Iterations 0
diagonal:  Solving for rhoUx, Initial residual = 0, Final residual = 0, No Iterations 0
diagonal:  Solving for rhoUy, Initial residual = 0, Final residual = 0, No Iterations 0
diagonal:  Solving for rhoUz, Initial residual = 0, Final residual = 0, No Iterations 0
smoothSolver:  Solving for Ux, Initial residual = 6.01819e-07, Final residual = 6.01819e-07, No Iterations 0
smoothSolver:  Solving for Uy, Initial residual = 2.33598e-06, Final residual = 1.60498e-10, No Iterations 1
smoothSolver:  Solving for Uz, Initial residual = 1.48653e-07, Final residual = 1.48653e-07, No Iterations 0
diagonal:  Solving for rhoE, Initial residual = 0, Final residual = 0, No Iterations 0
smoothSolver:  Solving for e, Initial residual = 2.13087e-08, Final residual = 2.13087e-08, No Iterations 0
smoothSolver:  Solving for omega, Initial residual = 1.24825e-06, Final residual = 1.00886e-09, No Iterations 1
smoothSolver:  Solving for k, Initial residual = 0.00525835, Final residual = 3.02542e-06, No Iterations 1
ExecutionTime = 2.65 s  ClockTime = 3 s

deltaT = 5.05734e-06
Mean and max Courant Numbers = 0.00156641 0.100514
Time = 4.41623e-05

diagonal:  Solving for rho, Initial residual = 0, Final residual = 0, No Iterations 0
diagonal:  Solving for rhoUx, Initial residual = 0, Final residual = 0, No Iterations 0
diagonal:  Solving for rhoUy, Initial residual = 0, Final residual = 0, No Iterations 0
diagonal:  Solving for rhoUz, Initial residual = 0, Final residual = 0, No Iterations 0
smoothSolver:  Solving for Ux, Initial residual = 5.01235e-07, Final residual = 5.01235e-07, No Iterations 0
smoothSolver:  Solving for Uy, Initial residual = 1.86756e-06, Final residual = 1.22344e-10, No Iterations 1
smoothSolver:  Solving for Uz, Initial residual = 1.17542e-07, Final residual = 1.17542e-07, No Iterations 0
diagonal:  Solving for rhoE, Initial residual = 0, Final residual = 0, No Iterations 0
smoothSolver:  Solving for e, Initial residual = 1.87389e-08, Final residual = 1.87389e-08, No Iterations 0
smoothSolver:  Solving for omega, Initial residual = 1.24922e-06, Final residual = 1.02865e-09, No Iterations 1
smoothSolver:  Solving for k, Initial residual = 0.004259, Final residual = 2.45432e-06, No Iterations 1
ExecutionTime = 2.84 s  ClockTime = 3 s

deltaT = 5.03072e-06
Mean and max Courant Numbers = 0.00155817 0.100282
Time = 4.91931e-05

diagonal:  Solving for rho, Initial residual = 0, Final residual = 0, No Iterations 0
diagonal:  Solving for rhoUx, Initial residual = 0, Final residual = 0, No Iterations 0
diagonal:  Solving for rhoUy, Initial residual = 0, Final residual = 0, No Iterations 0
diagonal:  Solving for rhoUz, Initial residual = 0, Final residual = 0, No Iterations 0
smoothSolver:  Solving for Ux, Initial residual = 4.19681e-07, Final residual = 4.19681e-07, No Iterations 0
smoothSolver:  Solving for Uy, Initial residual = 1.50518e-06, Final residual = 9.56727e-11, No Iterations 1
smoothSolver:  Solving for Uz, Initial residual = 9.49228e-08, Final residual = 9.49228e-08, No Iterations 0
diagonal:  Solving for rhoE, Initial residual = 0, Final residual = 0, No Iterations 0
smoothSolver:  Solving for e, Initial residual = 1.67863e-08, Final residual = 1.67863e-08, No Iterations 0
smoothSolver:  Solving for omega, Initial residual = 1.24346e-06, Final residual = 1.03721e-09, No Iterations 1
smoothSolver:  Solving for k, Initial residual = 0.00351668, Final residual = 2.0194e-06, No Iterations 1
ExecutionTime = 3.05 s  ClockTime = 3 s

deltaT = 5.00425e-06
Mean and max Courant Numbers = 0.00154997 0.10005
Time = 5.41973e-05

diagonal:  Solving for rho, Initial residual = 0, Final residual = 0, No Iterations 0
diagonal:  Solving for rhoUx, Initial residual = 0, Final residual = 0, No Iterations 0
diagonal:  Solving for rhoUy, Initial residual = 0, Final residual = 0, No Iterations 0
diagonal:  Solving for rhoUz, Initial residual = 0, Final residual = 0, No Iterations 0
smoothSolver:  Solving for Ux, Initial residual = 3.57435e-07, Final residual = 3.57435e-07, No Iterations 0
smoothSolver:  Solving for Uy, Initial residual = 1.23663e-06, Final residual = 7.82438e-11, No Iterations 1
smoothSolver:  Solving for Uz, Initial residual = 7.82861e-08, Final residual = 7.82861e-08, No Iterations 0
diagonal:  Solving for rhoE, Initial residual = 0, Final residual = 0, No Iterations 0
smoothSolver:  Solving for e, Initial residual = 1.51906e-08, Final residual = 1.51906e-08, No Iterations 0
smoothSolver:  Solving for omega, Initial residual = 1.23758e-06, Final residual = 1.04523e-09, No Iterations 1
smoothSolver:  Solving for k, Initial residual = 0.00296296, Final residual = 1.69556e-06, No Iterations 1
ExecutionTime = 3.25 s  ClockTime = 3 s

deltaT = 5.00425e-06
Mean and max Courant Numbers = 0.00154997 0.100342
Time = 5.92016e-05

diagonal:  Solving for rho, Initial residual = 0, Final residual = 0, No Iterations 0
diagonal:  Solving for rhoUx, Initial residual = 0, Final residual = 0, No Iterations 0
diagonal:  Solving for rhoUy, Initial residual = 0, Final residual = 0, No Iterations 0
diagonal:  Solving for rhoUz, Initial residual = 0, Final residual = 0, No Iterations 0
smoothSolver:  Solving for Ux, Initial residual = 3.08378e-07, Final residual = 3.08378e-07, No Iterations 0
smoothSolver:  Solving for Uy, Initial residual = 1.0324e-06, Final residual = 6.58925e-11, No Iterations 1
smoothSolver:  Solving for Uz, Initial residual = 6.59305e-08, Final residual = 6.59305e-08, No Iterations 0
diagonal:  Solving for rhoE, Initial residual = 0, Final residual = 0, No Iterations 0
smoothSolver:  Solving for e, Initial residual = 1.39014e-08, Final residual = 1.39014e-08, No Iterations 0
smoothSolver:  Solving for omega, Initial residual = 1.2381e-06, Final residual = 1.06398e-09, No Iterations 1
smoothSolver:  Solving for k, Initial residual = 0.0025507, Final residual = 1.46231e-06, No Iterations 1
ExecutionTime = 3.45 s  ClockTime = 4 s

deltaT = 4.97777e-06
Mean and max Courant Numbers = 0.00154177 0.100102
Time = 6.41793e-05

diagonal:  Solving for rho, Initial residual = 0, Final residual = 0, No Iterations 0
diagonal:  Solving for rhoUx, Initial residual = 0, Final residual = 0, No Iterations 0
diagonal:  Solving for rhoUy, Initial residual = 0, Final residual = 0, No Iterations 0
diagonal:  Solving for rhoUz, Initial residual = 0, Final residual = 0, No Iterations 0
smoothSolver:  Solving for Ux, Initial residual = 2.71906e-07, Final residual = 2.71906e-07, No Iterations 0
smoothSolver:  Solving for Uy, Initial residual = 8.82712e-07, Final residual = 8.82712e-07, No Iterations 0
smoothSolver:  Solving for Uz, Initial residual = 5.6005e-08, Final residual = 5.6005e-08, No Iterations 0
diagonal:  Solving for rhoE, Initial residual = 0, Final residual = 0, No Iterations 0
smoothSolver:  Solving for e, Initial residual = 1.28742e-08, Final residual = 1.28742e-08, No Iterations 0
smoothSolver:  Solving for omega, Initial residual = 1.23193e-06, Final residual = 1.07111e-09, No Iterations 1
smoothSolver:  Solving for k, Initial residual = 0.00221198, Final residual = 1.2637e-06, No Iterations 1
ExecutionTime = 3.65 s  ClockTime = 4 s

deltaT = 4.97777e-06
Mean and max Courant Numbers = 0.00154177 0.100388
Time = 6.91571e-05

diagonal:  Solving for rho, Initial residual = 0, Final residual = 0, No Iterations 0
diagonal:  Solving for rhoUx, Initial residual = 0, Final residual = 0, No Iterations 0
diagonal:  Solving for rhoUy, Initial residual = 0, Final residual = 0, No Iterations 0
diagonal:  Solving for rhoUz, Initial residual = 0, Final residual = 0, No Iterations 0
smoothSolver:  Solving for Ux, Initial residual = 2.43357e-07, Final residual = 2.43357e-07, No Iterations 0
smoothSolver:  Solving for Uy, Initial residual = 7.68247e-07, Final residual = 7.68247e-07, No Iterations 0
smoothSolver:  Solving for Uz, Initial residual = 4.8352e-08, Final residual = 4.8352e-08, No Iterations 0
diagonal:  Solving for rhoE, Initial residual = 0, Final residual = 0, No Iterations 0
smoothSolver:  Solving for e, Initial residual = 1.21661e-08, Final residual = 1.21661e-08, No Iterations 0
smoothSolver:  Solving for omega, Initial residual = 1.23218e-06, Final residual = 1.08925e-09, No Iterations 1
smoothSolver:  Solving for k, Initial residual = 0.00195024, Final residual = 1.11617e-06, No Iterations 1
ExecutionTime = 3.85 s  ClockTime = 4 s

deltaT = 4.95129e-06
Mean and max Courant Numbers = 0.00153357 0.100135
Time = 7.41084e-05

diagonal:  Solving for rho, Initial residual = 0, Final residual = 0, No Iterations 0
diagonal:  Solving for rhoUx, Initial residual = 0, Final residual = 0, No Iterations 0
diagonal:  Solving for rhoUy, Initial residual = 0, Final residual = 0, No Iterations 0
diagonal:  Solving for rhoUz, Initial residual = 0, Final residual = 0, No Iterations 0
smoothSolver:  Solving for Ux, Initial residual = 2.19558e-07, Final residual = 2.19558e-07, No Iterations 0
smoothSolver:  Solving for Uy, Initial residual = 6.75458e-07, Final residual = 6.75458e-07, No Iterations 0
smoothSolver:  Solving for Uz, Initial residual = 4.19496e-08, Final residual = 4.19496e-08, No Iterations 0
diagonal:  Solving for rhoE, Initial residual = 0, Final residual = 0, No Iterations 0
smoothSolver:  Solving for e, Initial residual = 1.15978e-08, Final residual = 1.15978e-08, No Iterations 0
smoothSolver:  Solving for omega, Initial residual = 1.22573e-06, Final residual = 1.09545e-09, No Iterations 1
smoothSolver:  Solving for k, Initial residual = 0.00172567, Final residual = 9.84185e-07, No Iterations 1
ExecutionTime = 4.04 s  ClockTime = 4 s

deltaT = 4.95129e-06
Mean and max Courant Numbers = 0.00153357 0.100411
Time = 7.90597e-05

diagonal:  Solving for rho, Initial residual = 0, Final residual = 0, No Iterations 0
diagonal:  Solving for rhoUx, Initial residual = 0, Final residual = 0, No Iterations 0
diagonal:  Solving for rhoUy, Initial residual = 0, Final residual = 0, No Iterations 0
diagonal:  Solving for rhoUz, Initial residual = 0, Final residual = 0, No Iterations 0
smoothSolver:  Solving for Ux, Initial residual = 2.01791e-07, Final residual = 2.01791e-07, No Iterations 0
smoothSolver:  Solving for Uy, Initial residual = 6.05659e-07, Final residual = 6.05659e-07, No Iterations 0
smoothSolver:  Solving for Uz, Initial residual = 3.68882e-08, Final residual = 3.68882e-08, No Iterations 0
diagonal:  Solving for rhoE, Initial residual = 0, Final residual = 0, No Iterations 0
smoothSolver:  Solving for e, Initial residual = 1.12444e-08, Final residual = 1.12444e-08, No Iterations 0
smoothSolver:  Solving for omega, Initial residual = 1.22572e-06, Final residual = 1.11311e-09, No Iterations 1
smoothSolver:  Solving for k, Initial residual = 0.00154781, Final residual = 8.84356e-07, No Iterations 1
ExecutionTime = 4.26 s  ClockTime = 4 s

deltaT = 4.92481e-06
Mean and max Courant Numbers = 0.00152537 0.100144
Time = 8.39845e-05

diagonal:  Solving for rho, Initial residual = 0, Final residual = 0, No Iterations 0
diagonal:  Solving for rhoUx, Initial residual = 0, Final residual = 0, No Iterations 0
diagonal:  Solving for rhoUy, Initial residual = 0, Final residual = 0, No Iterations 0
diagonal:  Solving for rhoUz, Initial residual = 0, Final residual = 0, No Iterations 0
smoothSolver:  Solving for Ux, Initial residual = 1.86474e-07, Final residual = 1.86474e-07, No Iterations 0
smoothSolver:  Solving for Uy, Initial residual = 5.47346e-07, Final residual = 5.47346e-07, No Iterations 0
smoothSolver:  Solving for Uz, Initial residual = 3.25096e-08, Final residual = 3.25096e-08, No Iterations 0
diagonal:  Solving for rhoE, Initial residual = 0, Final residual = 0, No Iterations 0
smoothSolver:  Solving for e, Initial residual = 1.09219e-08, Final residual = 1.09219e-08, No Iterations 0
smoothSolver:  Solving for omega, Initial residual = 1.21904e-06, Final residual = 1.11866e-09, No Iterations 1
smoothSolver:  Solving for k, Initial residual = 0.00138999, Final residual = 7.91441e-07, No Iterations 1
ExecutionTime = 4.46 s  ClockTime = 5 s

deltaT = 4.92481e-06
Mean and max Courant Numbers = 0.00152537 0.100409
Time = 8.89093e-05

diagonal:  Solving for rho, Initial residual = 0, Final residual = 0, No Iterations 0
diagonal:  Solving for rhoUx, Initial residual = 0, Final residual = 0, No Iterations 0
diagonal:  Solving for rhoUy, Initial residual = 0, Final residual = 0, No Iterations 0
diagonal:  Solving for rhoUz, Initial residual = 0, Final residual = 0, No Iterations 0
smoothSolver:  Solving for Ux, Initial residual = 1.7462e-07, Final residual = 1.7462e-07, No Iterations 0
smoothSolver:  Solving for Uy, Initial residual = 5.01824e-07, Final residual = 5.01824e-07, No Iterations 0
smoothSolver:  Solving for Uz, Initial residual = 2.8976e-08, Final residual = 2.8976e-08, No Iterations 0
diagonal:  Solving for rhoE, Initial residual = 0, Final residual = 0, No Iterations 0
smoothSolver:  Solving for e, Initial residual = 1.07399e-08, Final residual = 1.07399e-08, No Iterations 0
smoothSolver:  Solving for omega, Initial residual = 1.21882e-06, Final residual = 1.13603e-09, No Iterations 1
smoothSolver:  Solving for k, Initial residual = 0.00126288, Final residual = 7.20461e-07, No Iterations 1
ExecutionTime = 4.66 s  ClockTime = 5 s

deltaT = 4.89834e-06
Mean and max Courant Numbers = 0.00151717 0.100185
Time = 9.38077e-05

diagonal:  Solving for rho, Initial residual = 0, Final residual = 0, No Iterations 0
diagonal:  Solving for rhoUx, Initial residual = 0, Final residual = 0, No Iterations 0
diagonal:  Solving for rhoUy, Initial residual = 0, Final residual = 0, No Iterations 0
diagonal:  Solving for rhoUz, Initial residual = 0, Final residual = 0, No Iterations 0
smoothSolver:  Solving for Ux, Initial residual = 1.63444e-07, Final residual = 1.63444e-07, No Iterations 0
smoothSolver:  Solving for Uy, Initial residual = 4.60523e-07, Final residual = 4.60523e-07, No Iterations 0
smoothSolver:  Solving for Uz, Initial residual = 2.59637e-08, Final residual = 2.59637e-08, No Iterations 0
diagonal:  Solving for rhoE, Initial residual = 0, Final residual = 0, No Iterations 0
smoothSolver:  Solving for e, Initial residual = 1.04264e-08, Final residual = 1.04264e-08, No Iterations 0
smoothSolver:  Solving for omega, Initial residual = 1.21079e-06, Final residual = 1.13783e-09, No Iterations 1
smoothSolver:  Solving for k, Initial residual = 0.0011469, Final residual = 6.52154e-07, No Iterations 1
ExecutionTime = 4.87 s  ClockTime = 5 s

deltaT = 4.89834e-06
Mean and max Courant Numbers = 0.00151717 0.100645
Time = 9.8706e-05

diagonal:  Solving for rho, Initial residual = 0, Final residual = 0, No Iterations 0
diagonal:  Solving for rhoUx, Initial residual = 0, Final residual = 0, No Iterations 0
diagonal:  Solving for rhoUy, Initial residual = 0, Final residual = 0, No Iterations 0
diagonal:  Solving for rhoUz, Initial residual = 0, Final residual = 0, No Iterations 0
smoothSolver:  Solving for Ux, Initial residual = 1.53441e-07, Final residual = 1.53441e-07, No Iterations 0
smoothSolver:  Solving for Uy, Initial residual = 4.2514e-07, Final residual = 4.2514e-07, No Iterations 0
smoothSolver:  Solving for Uz, Initial residual = 2.36247e-08, Final residual = 2.36247e-08, No Iterations 0
diagonal:  Solving for rhoE, Initial residual = 0, Final residual = 0, No Iterations 0
smoothSolver:  Solving for e, Initial residual = 9.95372e-09, Final residual = 9.95372e-09, No Iterations 0
smoothSolver:  Solving for omega, Initial residual = 1.20908e-06, Final residual = 1.15149e-09, No Iterations 1
smoothSolver:  Solving for k, Initial residual = 0.0010541, Final residual = 6.007e-07, No Iterations 1
ExecutionTime = 5.07 s  ClockTime = 5 s

deltaT = 4.87186e-06
Mean and max Courant Numbers = 0.00150897 0.100522
Time = 0.000103578

diagonal:  Solving for rho, Initial residual = 0, Final residual = 0, No Iterations 0
diagonal:  Solving for rhoUx, Initial residual = 0, Final residual = 0, No Iterations 0
diagonal:  Solving for rhoUy, Initial residual = 0, Final residual = 0, No Iterations 0
diagonal:  Solving for rhoUz, Initial residual = 0, Final residual = 0, No Iterations 0
smoothSolver:  Solving for Ux, Initial residual = 1.43404e-07, Final residual = 1.43404e-07, No Iterations 0
smoothSolver:  Solving for Uy, Initial residual = 3.92087e-07, Final residual = 3.92087e-07, No Iterations 0
smoothSolver:  Solving for Uz, Initial residual = 2.15516e-08, Final residual = 2.15516e-08, No Iterations 0
diagonal:  Solving for rhoE, Initial residual = 0, Final residual = 0, No Iterations 0
smoothSolver:  Solving for e, Initial residual = 9.45336e-09, Final residual = 9.45336e-09, No Iterations 0
smoothSolver:  Solving for omega, Initial residual = 1.20109e-06, Final residual = 1.15303e-09, No Iterations 1
smoothSolver:  Solving for k, Initial residual = 0.000969216, Final residual = 5.50666e-07, No Iterations 1
ExecutionTime = 5.25 s  ClockTime = 5 s

deltaT = 4.84553e-06
Mean and max Courant Numbers = 0.00150081 0.100359
Time = 0.000108423

diagonal:  Solving for rho, Initial residual = 0, Final residual = 0, No Iterations 0
diagonal:  Solving for rhoUx, Initial residual = 0, Final residual = 0, No Iterations 0
diagonal:  Solving for rhoUy, Initial residual = 0, Final residual = 0, No Iterations 0
diagonal:  Solving for rhoUz, Initial residual = 0, Final residual = 0, No Iterations 0
smoothSolver:  Solving for Ux, Initial residual = 1.32968e-07, Final residual = 1.32968e-07, No Iterations 0
smoothSolver:  Solving for Uy, Initial residual = 3.58855e-07, Final residual = 3.58855e-07, No Iterations 0
smoothSolver:  Solving for Uz, Initial residual = 1.97989e-08, Final residual = 1.97989e-08, No Iterations 0
diagonal:  Solving for rhoE, Initial residual = 0, Final residual = 0, No Iterations 0
smoothSolver:  Solving for e, Initial residual = 6.82948e-09, Final residual = 6.82948e-09, No Iterations 0
smoothSolver:  Solving for omega, Initial residual = 1.19341e-06, Final residual = 1.15457e-09, No Iterations 1
smoothSolver:  Solving for k, Initial residual = 0.000895882, Final residual = 5.07412e-07, No Iterations 1
ExecutionTime = 5.45 s  ClockTime = 6 s

deltaT = 4.81933e-06
Mean and max Courant Numbers = 0.0014927 0.10016
Time = 0.000113243

diagonal:  Solving for rho, Initial residual = 0, Final residual = 0, No Iterations 0
diagonal:  Solving for rhoUx, Initial residual = 0, Final residual = 0, No Iterations 0
diagonal:  Solving for rhoUy, Initial residual = 0, Final residual = 0, No Iterations 0
diagonal:  Solving for rhoUz, Initial residual = 0, Final residual = 0, No Iterations 0
smoothSolver:  Solving for Ux, Initial residual = 1.24714e-07, Final residual = 1.24714e-07, No Iterations 0
smoothSolver:  Solving for Uy, Initial residual = 3.31989e-07, Final residual = 3.31989e-07, No Iterations 0
smoothSolver:  Solving for Uz, Initial residual = 1.83443e-08, Final residual = 1.83443e-08, No Iterations 0
diagonal:  Solving for rhoE, Initial residual = 0, Final residual = 0, No Iterations 0
smoothSolver:  Solving for e, Initial residual = 5.35831e-09, Final residual = 5.35831e-09, No Iterations 0
smoothSolver:  Solving for omega, Initial residual = 1.18606e-06, Final residual = 1.15707e-09, No Iterations 1
smoothSolver:  Solving for k, Initial residual = 0.000831866, Final residual = 4.69684e-07, No Iterations 1
ExecutionTime = 5.64 s  ClockTime = 6 s

deltaT = 4.81933e-06
Mean and max Courant Numbers = 0.0014927 0.100469
Time = 0.000118062

diagonal:  Solving for rho, Initial residual = 0, Final residual = 0, No Iterations 0
diagonal:  Solving for rhoUx, Initial residual = 0, Final residual = 0, No Iterations 0
diagonal:  Solving for rhoUy, Initial residual = 0, Final residual = 0, No Iterations 0
diagonal:  Solving for rhoUz, Initial residual = 0, Final residual = 0, No Iterations 0
smoothSolver:  Solving for Ux, Initial residual = 1.18831e-07, Final residual = 1.18831e-07, No Iterations 0
smoothSolver:  Solving for Uy, Initial residual = 3.11927e-07, Final residual = 3.11927e-07, No Iterations 0
smoothSolver:  Solving for Uz, Initial residual = 1.71739e-08, Final residual = 1.71739e-08, No Iterations 0
diagonal:  Solving for rhoE, Initial residual = 0, Final residual = 0, No Iterations 0
smoothSolver:  Solving for e, Initial residual = 4.82372e-09, Final residual = 4.82372e-09, No Iterations 0
smoothSolver:  Solving for omega, Initial residual = 1.18524e-06, Final residual = 1.17253e-09, No Iterations 1
smoothSolver:  Solving for k, Initial residual = 0.000779795, Final residual = 4.41286e-07, No Iterations 1
ExecutionTime = 5.83 s  ClockTime = 6 s

deltaT = 4.79314e-06
Mean and max Courant Numbers = 0.00148458 0.1002
Time = 0.000122855

diagonal:  Solving for rho, Initial residual = 0, Final residual = 0, No Iterations 0
diagonal:  Solving for rhoUx, Initial residual = 0, Final residual = 0, No Iterations 0
diagonal:  Solving for rhoUy, Initial residual = 0, Final residual = 0, No Iterations 0
diagonal:  Solving for rhoUz, Initial residual = 0, Final residual = 0, No Iterations 0
smoothSolver:  Solving for Ux, Initial residual = 1.13396e-07, Final residual = 1.13396e-07, No Iterations 0
smoothSolver:  Solving for Uy, Initial residual = 2.93628e-07, Final residual = 2.93628e-07, No Iterations 0
smoothSolver:  Solving for Uz, Initial residual = 1.6064e-08, Final residual = 1.6064e-08, No Iterations 0
diagonal:  Solving for rhoE, Initial residual = 0, Final residual = 0, No Iterations 0
smoothSolver:  Solving for e, Initial residual = 4.49424e-09, Final residual = 4.49424e-09, No Iterations 0
smoothSolver:  Solving for omega, Initial residual = 1.17796e-06, Final residual = 1.17502e-09, No Iterations 1
smoothSolver:  Solving for k, Initial residual = 0.000729415, Final residual = 4.11491e-07, No Iterations 1
ExecutionTime = 6.01 s  ClockTime = 6 s

deltaT = 4.79314e-06
Mean and max Courant Numbers = 0.00148458 0.100448
Time = 0.000127648

diagonal:  Solving for rho, Initial residual = 0, Final residual = 0, No Iterations 0
diagonal:  Solving for rhoUx, Initial residual = 0, Final residual = 0, No Iterations 0
diagonal:  Solving for rhoUy, Initial residual = 0, Final residual = 0, No Iterations 0
diagonal:  Solving for rhoUz, Initial residual = 0, Final residual = 0, No Iterations 0
smoothSolver:  Solving for Ux, Initial residual = 1.09347e-07, Final residual = 1.09347e-07, No Iterations 0
smoothSolver:  Solving for Uy, Initial residual = 2.79381e-07, Final residual = 2.79381e-07, No Iterations 0
smoothSolver:  Solving for Uz, Initial residual = 1.516e-08, Final residual = 1.516e-08, No Iterations 0
diagonal:  Solving for rhoE, Initial residual = 0, Final residual = 0, No Iterations 0
smoothSolver:  Solving for e, Initial residual = 4.28309e-09, Final residual = 4.28309e-09, No Iterations 0
smoothSolver:  Solving for omega, Initial residual = 1.17719e-06, Final residual = 1.19029e-09, No Iterations 1
smoothSolver:  Solving for k, Initial residual = 0.000688256, Final residual = 3.89179e-07, No Iterations 1
ExecutionTime = 6.21 s  ClockTime = 6 s

deltaT = 4.76695e-06
Mean and max Courant Numbers = 0.00147647 0.10012
Time = 0.000132415

diagonal:  Solving for rho, Initial residual = 0, Final residual = 0, No Iterations 0
diagonal:  Solving for rhoUx, Initial residual = 0, Final residual = 0, No Iterations 0
diagonal:  Solving for rhoUy, Initial residual = 0, Final residual = 0, No Iterations 0
diagonal:  Solving for rhoUz, Initial residual = 0, Final residual = 0, No Iterations 0
smoothSolver:  Solving for Ux, Initial residual = 1.05008e-07, Final residual = 1.05008e-07, No Iterations 0
smoothSolver:  Solving for Uy, Initial residual = 2.64922e-07, Final residual = 2.64922e-07, No Iterations 0
smoothSolver:  Solving for Uz, Initial residual = 1.42763e-08, Final residual = 1.42763e-08, No Iterations 0
diagonal:  Solving for rhoE, Initial residual = 0, Final residual = 0, No Iterations 0
smoothSolver:  Solving for e, Initial residual = 4.06319e-09, Final residual = 4.06319e-09, No Iterations 0
smoothSolver:  Solving for omega, Initial residual = 1.17009e-06, Final residual = 1.19269e-09, No Iterations 1
smoothSolver:  Solving for k, Initial residual = 0.000647558, Final residual = 3.65019e-07, No Iterations 1
ExecutionTime = 6.42 s  ClockTime = 7 s

deltaT = 4.76695e-06
Mean and max Courant Numbers = 0.00147647 0.100315
Time = 0.000137182

diagonal:  Solving for rho, Initial residual = 0, Final residual = 0, No Iterations 0
diagonal:  Solving for rhoUx, Initial residual = 0, Final residual = 0, No Iterations 0
diagonal:  Solving for rhoUy, Initial residual = 0, Final residual = 0, No Iterations 0
diagonal:  Solving for rhoUz, Initial residual = 0, Final residual = 0, No Iterations 0
smoothSolver:  Solving for Ux, Initial residual = 1.01543e-07, Final residual = 1.01543e-07, No Iterations 0
smoothSolver:  Solving for Uy, Initial residual = 2.53164e-07, Final residual = 2.53164e-07, No Iterations 0
smoothSolver:  Solving for Uz, Initial residual = 1.35523e-08, Final residual = 1.35523e-08, No Iterations 0
diagonal:  Solving for rhoE, Initial residual = 0, Final residual = 0, No Iterations 0
smoothSolver:  Solving for e, Initial residual = 3.89253e-09, Final residual = 3.89253e-09, No Iterations 0
smoothSolver:  Solving for omega, Initial residual = 1.1695e-06, Final residual = 1.20833e-09, No Iterations 1
smoothSolver:  Solving for k, Initial residual = 0.000614223, Final residual = 3.4703e-07, No Iterations 1
ExecutionTime = 6.62 s  ClockTime = 7 s

deltaT = 4.74076e-06
Mean and max Courant Numbers = 0.00146836 0.0999345
Time = 0.000141923

diagonal:  Solving for rho, Initial residual = 0, Final residual = 0, No Iterations 0
diagonal:  Solving for rhoUx, Initial residual = 0, Final residual = 0, No Iterations 0
diagonal:  Solving for rhoUy, Initial residual = 0, Final residual = 0, No Iterations 0
diagonal:  Solving for rhoUz, Initial residual = 0, Final residual = 0, No Iterations 0
smoothSolver:  Solving for Ux, Initial residual = 9.78752e-08, Final residual = 9.78752e-08, No Iterations 0
smoothSolver:  Solving for Uy, Initial residual = 2.41311e-07, Final residual = 2.41311e-07, No Iterations 0
smoothSolver:  Solving for Uz, Initial residual = 1.28269e-08, Final residual = 1.28269e-08, No Iterations 0
diagonal:  Solving for rhoE, Initial residual = 0, Final residual = 0, No Iterations 0
smoothSolver:  Solving for e, Initial residual = 3.71793e-09, Final residual = 3.71793e-09, No Iterations 0
smoothSolver:  Solving for omega, Initial residual = 1.16226e-06, Final residual = 1.21012e-09, No Iterations 1
smoothSolver:  Solving for k, Initial residual = 0.000580623, Final residual = 3.26982e-07, No Iterations 1
ExecutionTime = 6.82 s  ClockTime = 7 s

deltaT = 4.74076e-06
Mean and max Courant Numbers = 0.00146836 0.100084
Time = 0.000146664

diagonal:  Solving for rho, Initial residual = 0, Final residual = 0, No Iterations 0
diagonal:  Solving for rhoUx, Initial residual = 0, Final residual = 0, No Iterations 0
diagonal:  Solving for rhoUy, Initial residual = 0, Final residual = 0, No Iterations 0
diagonal:  Solving for rhoUz, Initial residual = 0, Final residual = 0, No Iterations 0
smoothSolver:  Solving for Ux, Initial residual = 9.51853e-08, Final residual = 9.51853e-08, No Iterations 0
smoothSolver:  Solving for Uy, Initial residual = 2.32265e-07, Final residual = 2.32265e-07, No Iterations 0
smoothSolver:  Solving for Uz, Initial residual = 1.22325e-08, Final residual = 1.22325e-08, No Iterations 0
diagonal:  Solving for rhoE, Initial residual = 0, Final residual = 0, No Iterations 0
smoothSolver:  Solving for e, Initial residual = 3.59427e-09, Final residual = 3.59427e-09, No Iterations 0
smoothSolver:  Solving for omega, Initial residual = 1.1614e-06, Final residual = 1.22525e-09, No Iterations 1
smoothSolver:  Solving for k, Initial residual = 0.000553097, Final residual = 3.12169e-07, No Iterations 1
ExecutionTime = 7.02 s  ClockTime = 7 s

deltaT = 4.74076e-06
Mean and max Courant Numbers = 0.00146836 0.100214
Time = 0.000151404

diagonal:  Solving for rho, Initial residual = 0, Final residual = 0, No Iterations 0
diagonal:  Solving for rhoUx, Initial residual = 0, Final residual = 0, No Iterations 0
diagonal:  Solving for rhoUy, Initial residual = 0, Final residual = 0, No Iterations 0
diagonal:  Solving for rhoUz, Initial residual = 0, Final residual = 0, No Iterations 0
smoothSolver:  Solving for Ux, Initial residual = 9.27555e-08, Final residual = 9.27555e-08, No Iterations 0
smoothSolver:  Solving for Uy, Initial residual = 2.24136e-07, Final residual = 2.24136e-07, No Iterations 0
smoothSolver:  Solving for Uz, Initial residual = 1.16877e-08, Final residual = 1.16877e-08, No Iterations 0
diagonal:  Solving for rhoE, Initial residual = 0, Final residual = 0, No Iterations 0
smoothSolver:  Solving for e, Initial residual = 3.48337e-09, Final residual = 3.48337e-09, No Iterations 0
smoothSolver:  Solving for omega, Initial residual = 1.16053e-06, Final residual = 1.24048e-09, No Iterations 1
smoothSolver:  Solving for k, Initial residual = 0.000527792, Final residual = 2.9853e-07, No Iterations 1
ExecutionTime = 7.22 s  ClockTime = 7 s

deltaT = 4.74076e-06
Mean and max Courant Numbers = 0.00146836 0.100327
Time = 0.000156145

diagonal:  Solving for rho, Initial residual = 0, Final residual = 0, No Iterations 0
diagonal:  Solving for rhoUx, Initial residual = 0, Final residual = 0, No Iterations 0
diagonal:  Solving for rhoUy, Initial residual = 0, Final residual = 0, No Iterations 0
diagonal:  Solving for rhoUz, Initial residual = 0, Final residual = 0, No Iterations 0
smoothSolver:  Solving for Ux, Initial residual = 9.05468e-08, Final residual = 9.05468e-08, No Iterations 0
smoothSolver:  Solving for Uy, Initial residual = 2.16867e-07, Final residual = 2.16867e-07, No Iterations 0
smoothSolver:  Solving for Uz, Initial residual = 1.11864e-08, Final residual = 1.11864e-08, No Iterations 0
diagonal:  Solving for rhoE, Initial residual = 0, Final residual = 0, No Iterations 0
smoothSolver:  Solving for e, Initial residual = 3.38161e-09, Final residual = 3.38161e-09, No Iterations 0
smoothSolver:  Solving for omega, Initial residual = 1.15965e-06, Final residual = 1.25573e-09, No Iterations 1
smoothSolver:  Solving for k, Initial residual = 0.000504445, Final residual = 2.85926e-07, No Iterations 1
ExecutionTime = 7.43 s  ClockTime = 8 s

deltaT = 4.71427e-06
Mean and max Courant Numbers = 0.00146016 0.0998981
Time = 0.00016086

diagonal:  Solving for rho, Initial residual = 0, Final residual = 0, No Iterations 0
diagonal:  Solving for rhoUx, Initial residual = 0, Final residual = 0, No Iterations 0
diagonal:  Solving for rhoUy, Initial residual = 0, Final residual = 0, No Iterations 0
diagonal:  Solving for rhoUz, Initial residual = 0, Final residual = 0, No Iterations 0
smoothSolver:  Solving for Ux, Initial residual = 8.80856e-08, Final residual = 8.80856e-08, No Iterations 0
smoothSolver:  Solving for Uy, Initial residual = 2.09471e-07, Final residual = 2.09471e-07, No Iterations 0
smoothSolver:  Solving for Uz, Initial residual = 1.06655e-08, Final residual = 1.06655e-08, No Iterations 0
diagonal:  Solving for rhoE, Initial residual = 0, Final residual = 0, No Iterations 0
smoothSolver:  Solving for e, Initial residual = 3.27027e-09, Final residual = 3.27027e-09, No Iterations 0
smoothSolver:  Solving for omega, Initial residual = 1.1523e-06, Final residual = 1.25679e-09, No Iterations 1
smoothSolver:  Solving for k, Initial residual = 0.000480144, Final residual = 2.71186e-07, No Iterations 1
ExecutionTime = 7.61 s  ClockTime = 8 s

deltaT = 4.71427e-06
Mean and max Courant Numbers = 0.00146016 0.0999719
Time = 0.000165574

diagonal:  Solving for rho, Initial residual = 0, Final residual = 0, No Iterations 0
diagonal:  Solving for rhoUx, Initial residual = 0, Final residual = 0, No Iterations 0
diagonal:  Solving for rhoUy, Initial residual = 0, Final residual = 0, No Iterations 0
diagonal:  Solving for rhoUz, Initial residual = 0, Final residual = 0, No Iterations 0
smoothSolver:  Solving for Ux, Initial residual = 8.62997e-08, Final residual = 8.62997e-08, No Iterations 0
smoothSolver:  Solving for Uy, Initial residual = 2.03752e-07, Final residual = 2.03752e-07, No Iterations 0
smoothSolver:  Solving for Uz, Initial residual = 1.02409e-08, Final residual = 1.02409e-08, No Iterations 0
diagonal:  Solving for rhoE, Initial residual = 0, Final residual = 0, No Iterations 0
smoothSolver:  Solving for e, Initial residual = 3.18059e-09, Final residual = 3.18059e-09, No Iterations 0
smoothSolver:  Solving for omega, Initial residual = 1.15141e-06, Final residual = 1.27176e-09, No Iterations 1
smoothSolver:  Solving for k, Initial residual = 0.00046031, Final residual = 2.60504e-07, No Iterations 1
ExecutionTime = 7.82 s  ClockTime = 8 s

deltaT = 4.71427e-06
Mean and max Courant Numbers = 0.00146016 0.100011
Time = 0.000170288

diagonal:  Solving for rho, Initial residual = 0, Final residual = 0, No Iterations 0
diagonal:  Solving for rhoUx, Initial residual = 0, Final residual = 0, No Iterations 0
diagonal:  Solving for rhoUy, Initial residual = 0, Final residual = 0, No Iterations 0
diagonal:  Solving for rhoUz, Initial residual = 0, Final residual = 0, No Iterations 0
smoothSolver:  Solving for Ux, Initial residual = 8.45315e-08, Final residual = 8.45315e-08, No Iterations 0
smoothSolver:  Solving for Uy, Initial residual = 1.98283e-07, Final residual = 1.98283e-07, No Iterations 0
smoothSolver:  Solving for Uz, Initial residual = 9.84601e-09, Final residual = 9.84601e-09, No Iterations 0
diagonal:  Solving for rhoE, Initial residual = 0, Final residual = 0, No Iterations 0
smoothSolver:  Solving for e, Initial residual = 3.09564e-09, Final residual = 3.09564e-09, No Iterations 0
smoothSolver:  Solving for omega, Initial residual = 1.15051e-06, Final residual = 1.28669e-09, No Iterations 1
smoothSolver:  Solving for k, Initial residual = 0.000441844, Final residual = 2.50541e-07, No Iterations 1
ExecutionTime = 8.04 s  ClockTime = 8 s

deltaT = 4.71427e-06
Mean and max Courant Numbers = 0.00146016 0.100052
Time = 0.000175002

diagonal:  Solving for rho, Initial residual = 0, Final residual = 0, No Iterations 0
diagonal:  Solving for rhoUx, Initial residual = 0, Final residual = 0, No Iterations 0
diagonal:  Solving for rhoUy, Initial residual = 0, Final residual = 0, No Iterations 0
diagonal:  Solving for rhoUz, Initial residual = 0, Final residual = 0, No Iterations 0
smoothSolver:  Solving for Ux, Initial residual = 8.28219e-08, Final residual = 8.28219e-08, No Iterations 0
smoothSolver:  Solving for Uy, Initial residual = 1.93084e-07, Final residual = 1.93084e-07, No Iterations 0
smoothSolver:  Solving for Uz, Initial residual = 9.47713e-09, Final residual = 9.47713e-09, No Iterations 0
diagonal:  Solving for rhoE, Initial residual = 0, Final residual = 0, No Iterations 0
smoothSolver:  Solving for e, Initial residual = 3.01574e-09, Final residual = 3.01574e-09, No Iterations 0
smoothSolver:  Solving for omega, Initial residual = 1.1496e-06, Final residual = 1.30158e-09, No Iterations 1
smoothSolver:  Solving for k, Initial residual = 0.000424609, Final residual = 2.41224e-07, No Iterations 1
ExecutionTime = 8.24 s  ClockTime = 8 s

deltaT = 4.71427e-06
Mean and max Courant Numbers = 0.00146016 0.100083
Time = 0.000179717

diagonal:  Solving for rho, Initial residual = 0, Final residual = 0, No Iterations 0
diagonal:  Solving for rhoUx, Initial residual = 0, Final residual = 0, No Iterations 0
diagonal:  Solving for rhoUy, Initial residual = 0, Final residual = 0, No Iterations 0
diagonal:  Solving for rhoUz, Initial residual = 0, Final residual = 0, No Iterations 0
smoothSolver:  Solving for Ux, Initial residual = 8.11985e-08, Final residual = 8.11985e-08, No Iterations 0
smoothSolver:  Solving for Uy, Initial residual = 1.88223e-07, Final residual = 1.88223e-07, No Iterations 0
smoothSolver:  Solving for Uz, Initial residual = 9.13325e-09, Final residual = 9.13325e-09, No Iterations 0
diagonal:  Solving for rhoE, Initial residual = 0, Final residual = 0, No Iterations 0
smoothSolver:  Solving for e, Initial residual = 2.94216e-09, Final residual = 2.94216e-09, No Iterations 0
smoothSolver:  Solving for omega, Initial residual = 1.1485e-06, Final residual = 1.31492e-09, No Iterations 1
smoothSolver:  Solving for k, Initial residual = 0.000408483, Final residual = 2.32478e-07, No Iterations 1
ExecutionTime = 8.45 s  ClockTime = 9 s

deltaT = 4.71427e-06
Mean and max Courant Numbers = 0.00146016 0.100106
Time = 0.000184431

diagonal:  Solving for rho, Initial residual = 0, Final residual = 0, No Iterations 0
diagonal:  Solving for rhoUx, Initial residual = 0, Final residual = 0, No Iterations 0
diagonal:  Solving for rhoUy, Initial residual = 0, Final residual = 0, No Iterations 0
diagonal:  Solving for rhoUz, Initial residual = 0, Final residual = 0, No Iterations 0
smoothSolver:  Solving for Ux, Initial residual = 7.96609e-08, Final residual = 7.96609e-08, No Iterations 0
smoothSolver:  Solving for Uy, Initial residual = 1.83697e-07, Final residual = 1.83697e-07, No Iterations 0
smoothSolver:  Solving for Uz, Initial residual = 8.81266e-09, Final residual = 8.81266e-09, No Iterations 0
diagonal:  Solving for rhoE, Initial residual = 0, Final residual = 0, No Iterations 0
smoothSolver:  Solving for e, Initial residual = 2.87456e-09, Final residual = 2.87456e-09, No Iterations 0
smoothSolver:  Solving for omega, Initial residual = 1.14737e-06, Final residual = 1.32832e-09, No Iterations 1
smoothSolver:  Solving for k, Initial residual = 0.000393392, Final residual = 2.24272e-07, No Iterations 1
ExecutionTime = 8.65 s  ClockTime = 9 s

deltaT = 4.71427e-06
Mean and max Courant Numbers = 0.00146016 0.100121
Time = 0.000189145

diagonal:  Solving for rho, Initial residual = 0, Final residual = 0, No Iterations 0
diagonal:  Solving for rhoUx, Initial residual = 0, Final residual = 0, No Iterations 0
diagonal:  Solving for rhoUy, Initial residual = 0, Final residual = 0, No Iterations 0
diagonal:  Solving for rhoUz, Initial residual = 0, Final residual = 0, No Iterations 0
smoothSolver:  Solving for Ux, Initial residual = 7.81585e-08, Final residual = 7.81585e-08, No Iterations 0
smoothSolver:  Solving for Uy, Initial residual = 1.79366e-07, Final residual = 1.79366e-07, No Iterations 0
smoothSolver:  Solving for Uz, Initial residual = 8.51358e-09, Final residual = 8.51358e-09, No Iterations 0
diagonal:  Solving for rhoE, Initial residual = 0, Final residual = 0, No Iterations 0
smoothSolver:  Solving for e, Initial residual = 2.81368e-09, Final residual = 2.81368e-09, No Iterations 0
smoothSolver:  Solving for omega, Initial residual = 1.14604e-06, Final residual = 1.34111e-09, No Iterations 1
smoothSolver:  Solving for k, Initial residual = 0.000379251, Final residual = 2.16562e-07, No Iterations 1
ExecutionTime = 8.82 s  ClockTime = 9 s

deltaT = 4.71427e-06
Mean and max Courant Numbers = 0.00146016 0.100129
Time = 0.000193859

diagonal:  Solving for rho, Initial residual = 0, Final residual = 0, No Iterations 0
diagonal:  Solving for rhoUx, Initial residual = 0, Final residual = 0, No Iterations 0
diagonal:  Solving for rhoUy, Initial residual = 0, Final residual = 0, No Iterations 0
diagonal:  Solving for rhoUz, Initial residual = 0, Final residual = 0, No Iterations 0
smoothSolver:  Solving for Ux, Initial residual = 7.67135e-08, Final residual = 7.67135e-08, No Iterations 0
smoothSolver:  Solving for Uy, Initial residual = 1.75317e-07, Final residual = 1.75317e-07, No Iterations 0
smoothSolver:  Solving for Uz, Initial residual = 8.23388e-09, Final residual = 8.23388e-09, No Iterations 0
diagonal:  Solving for rhoE, Initial residual = 0, Final residual = 0, No Iterations 0
smoothSolver:  Solving for e, Initial residual = 2.77234e-09, Final residual = 2.77234e-09, No Iterations 0
smoothSolver:  Solving for omega, Initial residual = 1.14452e-06, Final residual = 1.353e-09, No Iterations 1
smoothSolver:  Solving for k, Initial residual = 0.000365979, Final residual = 2.09302e-07, No Iterations 1
ExecutionTime = 9.02 s  ClockTime = 9 s

deltaT = 4.71427e-06
Mean and max Courant Numbers = 0.00146016 0.100131
Time = 0.000198574

diagonal:  Solving for rho, Initial residual = 0, Final residual = 0, No Iterations 0
diagonal:  Solving for rhoUx, Initial residual = 0, Final residual = 0, No Iterations 0
diagonal:  Solving for rhoUy, Initial residual = 0, Final residual = 0, No Iterations 0
diagonal:  Solving for rhoUz, Initial residual = 0, Final residual = 0, No Iterations 0
smoothSolver:  Solving for Ux, Initial residual = 7.53833e-08, Final residual = 7.53833e-08, No Iterations 0
smoothSolver:  Solving for Uy, Initial residual = 1.7158e-07, Final residual = 1.7158e-07, No Iterations 0
smoothSolver:  Solving for Uz, Initial residual = 7.97335e-09, Final residual = 7.97335e-09, No Iterations 0
diagonal:  Solving for rhoE, Initial residual = 0, Final residual = 0, No Iterations 0
smoothSolver:  Solving for e, Initial residual = 2.75245e-09, Final residual = 2.75245e-09, No Iterations 0
smoothSolver:  Solving for omega, Initial residual = 1.14284e-06, Final residual = 1.36438e-09, No Iterations 1
smoothSolver:  Solving for k, Initial residual = 0.000353507, Final residual = 2.02453e-07, No Iterations 1
ExecutionTime = 9.22 s  ClockTime = 9 s

deltaT = 4.71427e-06
Mean and max Courant Numbers = 0.00146016 0.100224
Time = 0.000203288

diagonal:  Solving for rho, Initial residual = 0, Final residual = 0, No Iterations 0
diagonal:  Solving for rhoUx, Initial residual = 0, Final residual = 0, No Iterations 0
diagonal:  Solving for rhoUy, Initial residual = 0, Final residual = 0, No Iterations 0
diagonal:  Solving for rhoUz, Initial residual = 0, Final residual = 0, No Iterations 0
smoothSolver:  Solving for Ux, Initial residual = 7.41591e-08, Final residual = 7.41591e-08, No Iterations 0
smoothSolver:  Solving for Uy, Initial residual = 1.68083e-07, Final residual = 1.68083e-07, No Iterations 0
smoothSolver:  Solving for Uz, Initial residual = 7.73079e-09, Final residual = 7.73079e-09, No Iterations 0
diagonal:  Solving for rhoE, Initial residual = 0, Final residual = 0, No Iterations 0
smoothSolver:  Solving for e, Initial residual = 2.76883e-09, Final residual = 2.76883e-09, No Iterations 0
smoothSolver:  Solving for omega, Initial residual = 1.14116e-06, Final residual = 1.37582e-09, No Iterations 1
smoothSolver:  Solving for k, Initial residual = 0.000341779, Final residual = 1.95995e-07, No Iterations 1
ExecutionTime = 9.41 s  ClockTime = 10 s

deltaT = 4.71427e-06
Mean and max Courant Numbers = 0.00146015 0.10035
Time = 0.000208002

diagonal:  Solving for rho, Initial residual = 0, Final residual = 0, No Iterations 0
diagonal:  Solving for rhoUx, Initial residual = 0, Final residual = 0, No Iterations 0
diagonal:  Solving for rhoUy, Initial residual = 0, Final residual = 0, No Iterations 0
diagonal:  Solving for rhoUz, Initial residual = 0, Final residual = 0, No Iterations 0
smoothSolver:  Solving for Ux, Initial residual = 7.29843e-08, Final residual = 7.29843e-08, No Iterations 0
smoothSolver:  Solving for Uy, Initial residual = 1.64776e-07, Final residual = 1.64776e-07, No Iterations 0
smoothSolver:  Solving for Uz, Initial residual = 7.50929e-09, Final residual = 7.50929e-09, No Iterations 0
diagonal:  Solving for rhoE, Initial residual = 0, Final residual = 0, No Iterations 0
smoothSolver:  Solving for e, Initial residual = 2.91215e-09, Final residual = 2.91215e-09, No Iterations 0
smoothSolver:  Solving for omega, Initial residual = 1.13961e-06, Final residual = 1.38766e-09, No Iterations 1
smoothSolver:  Solving for k, Initial residual = 0.000330737, Final residual = 1.899e-07, No Iterations 1
ExecutionTime = 9.6 s  ClockTime = 10 s

deltaT = 4.68638e-06
Mean and max Courant Numbers = 0.00145151 0.0998745
Time = 0.000212689

diagonal:  Solving for rho, Initial residual = 0, Final residual = 0, No Iterations 0
diagonal:  Solving for rhoUx, Initial residual = 0, Final residual = 0, No Iterations 0
diagonal:  Solving for rhoUy, Initial residual = 0, Final residual = 0, No Iterations 0
diagonal:  Solving for rhoUz, Initial residual = 0, Final residual = 0, No Iterations 0
smoothSolver:  Solving for Ux, Initial residual = 7.15208e-08, Final residual = 7.15208e-08, No Iterations 0
smoothSolver:  Solving for Uy, Initial residual = 1.60842e-07, Final residual = 1.60842e-07, No Iterations 0
smoothSolver:  Solving for Uz, Initial residual = 7.31313e-09, Final residual = 7.31313e-09, No Iterations 0
diagonal:  Solving for rhoE, Initial residual = 0, Final residual = 0, No Iterations 0
smoothSolver:  Solving for e, Initial residual = 3.99482e-09, Final residual = 3.99482e-09, No Iterations 0
smoothSolver:  Solving for omega, Initial residual = 1.13142e-06, Final residual = 1.38318e-09, No Iterations 1
smoothSolver:  Solving for k, Initial residual = 0.000318431, Final residual = 1.81982e-07, No Iterations 1
ExecutionTime = 9.81 s  ClockTime = 10 s

deltaT = 4.68638e-06
Mean and max Courant Numbers = 0.00145151 0.0999854
Time = 0.000217375

diagonal:  Solving for rho, Initial residual = 0, Final residual = 0, No Iterations 0
diagonal:  Solving for rhoUx, Initial residual = 0, Final residual = 0, No Iterations 0
diagonal:  Solving for rhoUy, Initial residual = 0, Final residual = 0, No Iterations 0
diagonal:  Solving for rhoUz, Initial residual = 0, Final residual = 0, No Iterations 0
smoothSolver:  Solving for Ux, Initial residual = 7.06659e-08, Final residual = 7.06659e-08, No Iterations 0
smoothSolver:  Solving for Uy, Initial residual = 1.58229e-07, Final residual = 1.58229e-07, No Iterations 0
smoothSolver:  Solving for Uz, Initial residual = 7.12867e-09, Final residual = 7.12867e-09, No Iterations 0
diagonal:  Solving for rhoE, Initial residual = 0, Final residual = 0, No Iterations 0
smoothSolver:  Solving for e, Initial residual = 4.16504e-09, Final residual = 4.16504e-09, No Iterations 0
smoothSolver:  Solving for omega, Initial residual = 1.12999e-06, Final residual = 1.39459e-09, No Iterations 1
smoothSolver:  Solving for k, Initial residual = 0.000308709, Final residual = 1.76628e-07, No Iterations 1
ExecutionTime = 10.01 s  ClockTime = 10 s

deltaT = 4.68638e-06
Mean and max Courant Numbers = 0.00145151 0.10009
Time = 0.000222061

diagonal:  Solving for rho, Initial residual = 0, Final residual = 0, No Iterations 0
diagonal:  Solving for rhoUx, Initial residual = 0, Final residual = 0, No Iterations 0
diagonal:  Solving for rhoUy, Initial residual = 0, Final residual = 0, No Iterations 0
diagonal:  Solving for rhoUz, Initial residual = 0, Final residual = 0, No Iterations 0
smoothSolver:  Solving for Ux, Initial residual = 6.97263e-08, Final residual = 6.97263e-08, No Iterations 0
smoothSolver:  Solving for Uy, Initial residual = 1.55499e-07, Final residual = 1.55499e-07, No Iterations 0
smoothSolver:  Solving for Uz, Initial residual = 6.94117e-09, Final residual = 6.94117e-09, No Iterations 0
diagonal:  Solving for rhoE, Initial residual = 0, Final residual = 0, No Iterations 0
smoothSolver:  Solving for e, Initial residual = 4.078e-09, Final residual = 4.078e-09, No Iterations 0
smoothSolver:  Solving for omega, Initial residual = 1.12862e-06, Final residual = 1.40599e-09, No Iterations 1
smoothSolver:  Solving for k, Initial residual = 0.000299507, Final residual = 1.71546e-07, No Iterations 1
ExecutionTime = 10.21 s  ClockTime = 10 s

deltaT = 4.68638e-06
Mean and max Courant Numbers = 0.00145151 0.100187
Time = 0.000226748

diagonal:  Solving for rho, Initial residual = 0, Final residual = 0, No Iterations 0
diagonal:  Solving for rhoUx, Initial residual = 0, Final residual = 0, No Iterations 0
diagonal:  Solving for rhoUy, Initial residual = 0, Final residual = 0, No Iterations 0
diagonal:  Solving for rhoUz, Initial residual = 0, Final residual = 0, No Iterations 0
smoothSolver:  Solving for Ux, Initial residual = 6.87545e-08, Final residual = 6.87545e-08, No Iterations 0
smoothSolver:  Solving for Uy, Initial residual = 1.52773e-07, Final residual = 1.52773e-07, No Iterations 0
smoothSolver:  Solving for Uz, Initial residual = 6.76233e-09, Final residual = 6.76233e-09, No Iterations 0
diagonal:  Solving for rhoE, Initial residual = 0, Final residual = 0, No Iterations 0
smoothSolver:  Solving for e, Initial residual = 3.96818e-09, Final residual = 3.96818e-09, No Iterations 0
smoothSolver:  Solving for omega, Initial residual = 1.12722e-06, Final residual = 1.41731e-09, No Iterations 1
smoothSolver:  Solving for k, Initial residual = 0.000290783, Final residual = 1.66717e-07, No Iterations 1
ExecutionTime = 10.41 s  ClockTime = 11 s

deltaT = 4.68638e-06
Mean and max Courant Numbers = 0.00145151 0.100275
Time = 0.000231434

diagonal:  Solving for rho, Initial residual = 0, Final residual = 0, No Iterations 0
diagonal:  Solving for rhoUx, Initial residual = 0, Final residual = 0, No Iterations 0
diagonal:  Solving for rhoUy, Initial residual = 0, Final residual = 0, No Iterations 0
diagonal:  Solving for rhoUz, Initial residual = 0, Final residual = 0, No Iterations 0
smoothSolver:  Solving for Ux, Initial residual = 6.78678e-08, Final residual = 6.78678e-08, No Iterations 0
smoothSolver:  Solving for Uy, Initial residual = 1.50293e-07, Final residual = 1.50293e-07, No Iterations 0
smoothSolver:  Solving for Uz, Initial residual = 6.59263e-09, Final residual = 6.59263e-09, No Iterations 0
diagonal:  Solving for rhoE, Initial residual = 0, Final residual = 0, No Iterations 0
smoothSolver:  Solving for e, Initial residual = 3.86343e-09, Final residual = 3.86343e-09, No Iterations 0
smoothSolver:  Solving for omega, Initial residual = 1.12579e-06, Final residual = 1.4285e-09, No Iterations 1
smoothSolver:  Solving for k, Initial residual = 0.000282504, Final residual = 1.62123e-07, No Iterations 1
ExecutionTime = 10.61 s  ClockTime = 11 s

deltaT = 4.68638e-06
Mean and max Courant Numbers = 0.00145151 0.100353
Time = 0.000236121

diagonal:  Solving for rho, Initial residual = 0, Final residual = 0, No Iterations 0
diagonal:  Solving for rhoUx, Initial residual = 0, Final residual = 0, No Iterations 0
diagonal:  Solving for rhoUy, Initial residual = 0, Final residual = 0, No Iterations 0
diagonal:  Solving for rhoUz, Initial residual = 0, Final residual = 0, No Iterations 0
smoothSolver:  Solving for Ux, Initial residual = 6.70498e-08, Final residual = 6.70498e-08, No Iterations 0
smoothSolver:  Solving for Uy, Initial residual = 1.47916e-07, Final residual = 1.47916e-07, No Iterations 0
smoothSolver:  Solving for Uz, Initial residual = 6.43155e-09, Final residual = 6.43155e-09, No Iterations 0
diagonal:  Solving for rhoE, Initial residual = 0, Final residual = 0, No Iterations 0
smoothSolver:  Solving for e, Initial residual = 3.76148e-09, Final residual = 3.76148e-09, No Iterations 0
smoothSolver:  Solving for omega, Initial residual = 1.12436e-06, Final residual = 1.43953e-09, No Iterations 1
smoothSolver:  Solving for k, Initial residual = 0.000274638, Final residual = 1.57748e-07, No Iterations 1
ExecutionTime = 10.82 s  ClockTime = 11 s

deltaT = 4.6578e-06
Mean and max Courant Numbers = 0.00144266 0.099801
Time = 0.000240778

diagonal:  Solving for rho, Initial residual = 0, Final residual = 0, No Iterations 0
diagonal:  Solving for rhoUx, Initial residual = 0, Final residual = 0, No Iterations 0
diagonal:  Solving for rhoUy, Initial residual = 0, Final residual = 0, No Iterations 0
diagonal:  Solving for rhoUz, Initial residual = 0, Final residual = 0, No Iterations 0
smoothSolver:  Solving for Ux, Initial residual = 6.58666e-08, Final residual = 6.58666e-08, No Iterations 0
smoothSolver:  Solving for Uy, Initial residual = 1.44744e-07, Final residual = 1.44744e-07, No Iterations 0
smoothSolver:  Solving for Uz, Initial residual = 6.24073e-09, Final residual = 6.24073e-09, No Iterations 0
diagonal:  Solving for rhoE, Initial residual = 0, Final residual = 0, No Iterations 0
smoothSolver:  Solving for e, Initial residual = 3.63977e-09, Final residual = 3.63977e-09, No Iterations 0
smoothSolver:  Solving for omega, Initial residual = 1.11607e-06, Final residual = 1.43289e-09, No Iterations 1
smoothSolver:  Solving for k, Initial residual = 0.000265526, Final residual = 1.51716e-07, No Iterations 1
ExecutionTime = 11.03 s  ClockTime = 11 s

deltaT = 4.6578e-06
Mean and max Courant Numbers = 0.00144266 0.0998445
Time = 0.000245436

diagonal:  Solving for rho, Initial residual = 0, Final residual = 0, No Iterations 0
diagonal:  Solving for rhoUx, Initial residual = 0, Final residual = 0, No Iterations 0
diagonal:  Solving for rhoUy, Initial residual = 0, Final residual = 0, No Iterations 0
diagonal:  Solving for rhoUz, Initial residual = 0, Final residual = 0, No Iterations 0
smoothSolver:  Solving for Ux, Initial residual = 6.50979e-08, Final residual = 6.50979e-08, No Iterations 0
smoothSolver:  Solving for Uy, Initial residual = 1.42524e-07, Final residual = 1.42524e-07, No Iterations 0
smoothSolver:  Solving for Uz, Initial residual = 6.09625e-09, Final residual = 6.09625e-09, No Iterations 0
diagonal:  Solving for rhoE, Initial residual = 0, Final residual = 0, No Iterations 0
smoothSolver:  Solving for e, Initial residual = 3.54367e-09, Final residual = 3.54367e-09, No Iterations 0
smoothSolver:  Solving for omega, Initial residual = 1.11466e-06, Final residual = 1.44368e-09, No Iterations 1
smoothSolver:  Solving for k, Initial residual = 0.000258482, Final residual = 1.47812e-07, No Iterations 1
ExecutionTime = 11.22 s  ClockTime = 11 s

deltaT = 4.6578e-06
Mean and max Courant Numbers = 0.00144266 0.0998811
Time = 0.000250094

diagonal:  Solving for rho, Initial residual = 0, Final residual = 0, No Iterations 0
diagonal:  Solving for rhoUx, Initial residual = 0, Final residual = 0, No Iterations 0
diagonal:  Solving for rhoUy, Initial residual = 0, Final residual = 0, No Iterations 0
diagonal:  Solving for rhoUz, Initial residual = 0, Final residual = 0, No Iterations 0
smoothSolver:  Solving for Ux, Initial residual = 6.43465e-08, Final residual = 6.43465e-08, No Iterations 0
smoothSolver:  Solving for Uy, Initial residual = 1.40298e-07, Final residual = 1.40298e-07, No Iterations 0
smoothSolver:  Solving for Uz, Initial residual = 5.95834e-09, Final residual = 5.95834e-09, No Iterations 0
diagonal:  Solving for rhoE, Initial residual = 0, Final residual = 0, No Iterations 0
smoothSolver:  Solving for e, Initial residual = 3.44979e-09, Final residual = 3.44979e-09, No Iterations 0
smoothSolver:  Solving for omega, Initial residual = 1.11328e-06, Final residual = 1.45447e-09, No Iterations 1
smoothSolver:  Solving for k, Initial residual = 0.000251762, Final residual = 1.44081e-07, No Iterations 1
ExecutionTime = 11.44 s  ClockTime = 12 s

deltaT = 4.6578e-06
Mean and max Courant Numbers = 0.00144266 0.0999101
Time = 0.000254752

diagonal:  Solving for rho, Initial residual = 0, Final residual = 0, No Iterations 0
diagonal:  Solving for rhoUx, Initial residual = 0, Final residual = 0, No Iterations 0
diagonal:  Solving for rhoUy, Initial residual = 0, Final residual = 0, No Iterations 0
diagonal:  Solving for rhoUz, Initial residual = 0, Final residual = 0, No Iterations 0
smoothSolver:  Solving for Ux, Initial residual = 6.36404e-08, Final residual = 6.36404e-08, No Iterations 0
smoothSolver:  Solving for Uy, Initial residual = 1.38147e-07, Final residual = 1.38147e-07, No Iterations 0
smoothSolver:  Solving for Uz, Initial residual = 5.82661e-09, Final residual = 5.82661e-09, No Iterations 0
diagonal:  Solving for rhoE, Initial residual = 0, Final residual = 0, No Iterations 0
smoothSolver:  Solving for e, Initial residual = 3.35977e-09, Final residual = 3.35977e-09, No Iterations 0
smoothSolver:  Solving for omega, Initial residual = 1.11193e-06, Final residual = 1.46535e-09, No Iterations 1
smoothSolver:  Solving for k, Initial residual = 0.000245345, Final residual = 1.40516e-07, No Iterations 1
ExecutionTime = 11.64 s  ClockTime = 12 s

deltaT = 4.6578e-06
Mean and max Courant Numbers = 0.00144266 0.0999326
Time = 0.00025941

diagonal:  Solving for rho, Initial residual = 0, Final residual = 0, No Iterations 0
diagonal:  Solving for rhoUx, Initial residual = 0, Final residual = 0, No Iterations 0
diagonal:  Solving for rhoUy, Initial residual = 0, Final residual = 0, No Iterations 0
diagonal:  Solving for rhoUz, Initial residual = 0, Final residual = 0, No Iterations 0
smoothSolver:  Solving for Ux, Initial residual = 6.29397e-08, Final residual = 6.29397e-08, No Iterations 0
smoothSolver:  Solving for Uy, Initial residual = 1.3599e-07, Final residual = 1.3599e-07, No Iterations 0
smoothSolver:  Solving for Uz, Initial residual = 5.70027e-09, Final residual = 5.70027e-09, No Iterations 0
diagonal:  Solving for rhoE, Initial residual = 0, Final residual = 0, No Iterations 0
smoothSolver:  Solving for e, Initial residual = 3.27101e-09, Final residual = 3.27101e-09, No Iterations 0
smoothSolver:  Solving for omega, Initial residual = 1.11058e-06, Final residual = 1.47616e-09, No Iterations 1
smoothSolver:  Solving for k, Initial residual = 0.000239211, Final residual = 1.37102e-07, No Iterations 1
ExecutionTime = 11.85 s  ClockTime = 12 s

deltaT = 4.6578e-06
Mean and max Courant Numbers = 0.00144266 0.0999496
Time = 0.000264067

diagonal:  Solving for rho, Initial residual = 0, Final residual = 0, No Iterations 0
diagonal:  Solving for rhoUx, Initial residual = 0, Final residual = 0, No Iterations 0
diagonal:  Solving for rhoUy, Initial residual = 0, Final residual = 0, No Iterations 0
diagonal:  Solving for rhoUz, Initial residual = 0, Final residual = 0, No Iterations 0
smoothSolver:  Solving for Ux, Initial residual = 6.22396e-08, Final residual = 6.22396e-08, No Iterations 0
smoothSolver:  Solving for Uy, Initial residual = 1.33822e-07, Final residual = 1.33822e-07, No Iterations 0
smoothSolver:  Solving for Uz, Initial residual = 5.57924e-09, Final residual = 5.57924e-09, No Iterations 0
diagonal:  Solving for rhoE, Initial residual = 0, Final residual = 0, No Iterations 0
smoothSolver:  Solving for e, Initial residual = 3.18443e-09, Final residual = 3.18443e-09, No Iterations 0
smoothSolver:  Solving for omega, Initial residual = 1.10924e-06, Final residual = 1.48691e-09, No Iterations 1
smoothSolver:  Solving for k, Initial residual = 0.000233342, Final residual = 1.33829e-07, No Iterations 1
ExecutionTime = 12.07 s  ClockTime = 12 s

deltaT = 4.6578e-06
Mean and max Courant Numbers = 0.00144266 0.0999623
Time = 0.000268725

diagonal:  Solving for rho, Initial residual = 0, Final residual = 0, No Iterations 0
diagonal:  Solving for rhoUx, Initial residual = 0, Final residual = 0, No Iterations 0
diagonal:  Solving for rhoUy, Initial residual = 0, Final residual = 0, No Iterations 0
diagonal:  Solving for rhoUz, Initial residual = 0, Final residual = 0, No Iterations 0
smoothSolver:  Solving for Ux, Initial residual = 6.15609e-08, Final residual = 6.15609e-08, No Iterations 0
smoothSolver:  Solving for Uy, Initial residual = 1.31683e-07, Final residual = 1.31683e-07, No Iterations 0
smoothSolver:  Solving for Uz, Initial residual = 5.46318e-09, Final residual = 5.46318e-09, No Iterations 0
diagonal:  Solving for rhoE, Initial residual = 0, Final residual = 0, No Iterations 0
smoothSolver:  Solving for e, Initial residual = 3.10104e-09, Final residual = 3.10104e-09, No Iterations 0
smoothSolver:  Solving for omega, Initial residual = 1.10791e-06, Final residual = 1.49767e-09, No Iterations 1
smoothSolver:  Solving for k, Initial residual = 0.000227724, Final residual = 1.30691e-07, No Iterations 1
ExecutionTime = 12.29 s  ClockTime = 12 s

deltaT = 4.6578e-06
Mean and max Courant Numbers = 0.00144266 0.0999988
Time = 0.000273383

diagonal:  Solving for rho, Initial residual = 0, Final residual = 0, No Iterations 0
diagonal:  Solving for rhoUx, Initial residual = 0, Final residual = 0, No Iterations 0
diagonal:  Solving for rhoUy, Initial residual = 0, Final residual = 0, No Iterations 0
diagonal:  Solving for rhoUz, Initial residual = 0, Final residual = 0, No Iterations 0
smoothSolver:  Solving for Ux, Initial residual = 6.09051e-08, Final residual = 6.09051e-08, No Iterations 0
smoothSolver:  Solving for Uy, Initial residual = 1.29624e-07, Final residual = 1.29624e-07, No Iterations 0
smoothSolver:  Solving for Uz, Initial residual = 5.35197e-09, Final residual = 5.35197e-09, No Iterations 0
diagonal:  Solving for rhoE, Initial residual = 0, Final residual = 0, No Iterations 0
smoothSolver:  Solving for e, Initial residual = 3.02057e-09, Final residual = 3.02057e-09, No Iterations 0
smoothSolver:  Solving for omega, Initial residual = 1.10659e-06, Final residual = 1.50842e-09, No Iterations 1
smoothSolver:  Solving for k, Initial residual = 0.000222341, Final residual = 1.27679e-07, No Iterations 1
ExecutionTime = 12.48 s  ClockTime = 13 s

deltaT = 4.6578e-06
Mean and max Courant Numbers = 0.00144266 0.100072
Time = 0.000278041

diagonal:  Solving for rho, Initial residual = 0, Final residual = 0, No Iterations 0
diagonal:  Solving for rhoUx, Initial residual = 0, Final residual = 0, No Iterations 0
diagonal:  Solving for rhoUy, Initial residual = 0, Final residual = 0, No Iterations 0
diagonal:  Solving for rhoUz, Initial residual = 0, Final residual = 0, No Iterations 0
smoothSolver:  Solving for Ux, Initial residual = 6.02948e-08, Final residual = 6.02948e-08, No Iterations 0
smoothSolver:  Solving for Uy, Initial residual = 1.27687e-07, Final residual = 1.27687e-07, No Iterations 0
smoothSolver:  Solving for Uz, Initial residual = 5.24543e-09, Final residual = 5.24543e-09, No Iterations 0
diagonal:  Solving for rhoE, Initial residual = 0, Final residual = 0, No Iterations 0
[...]
smoothSolver:  Solving for omega, Initial residual = 4.82677e-07, Final residual = 4.82677e-07, No Iterations 0
smoothSolver:  Solving for k, Initial residual = 1.59538e-06, Final residual = 1.82808e-09, No Iterations 1
ExecutionTime = 599.14 s  ClockTime = 599 s

deltaT = 5.07614e-06
Mean and max Courant Numbers = 0.00157278 0.0997101
Time = 0.0149239

diagonal:  Solving for rho, Initial residual = 0, Final residual = 0, No Iterations 0
diagonal:  Solving for rhoUx, Initial residual = 0, Final residual = 0, No Iterations 0
diagonal:  Solving for rhoUy, Initial residual = 0, Final residual = 0, No Iterations 0
diagonal:  Solving for rhoUz, Initial residual = 0, Final residual = 0, No Iterations 0
smoothSolver:  Solving for Ux, Initial residual = 8.22604e-08, Final residual = 8.22604e-08, No Iterations 0
smoothSolver:  Solving for Uy, Initial residual = 1.19734e-07, Final residual = 1.19734e-07, No Iterations 0
smoothSolver:  Solving for Uz, Initial residual = 1.81994e-09, Final residual = 1.81994e-09, No Iterations 0
diagonal:  Solving for rhoE, Initial residual = 0, Final residual = 0, No Iterations 0
smoothSolver:  Solving for e, Initial residual = 1.17706e-09, Final residual = 1.17706e-09, No Iterations 0
smoothSolver:  Solving for omega, Initial residual = 4.82469e-07, Final residual = 4.82469e-07, No Iterations 0
smoothSolver:  Solving for k, Initial residual = 1.59323e-06, Final residual = 1.82648e-09, No Iterations 1
ExecutionTime = 599.35 s  ClockTime = 600 s

deltaT = 5.07614e-06
Mean and max Courant Numbers = 0.00157278 0.0997082
Time = 0.0149289

diagonal:  Solving for rho, Initial residual = 0, Final residual = 0, No Iterations 0
diagonal:  Solving for rhoUx, Initial residual = 0, Final residual = 0, No Iterations 0
diagonal:  Solving for rhoUy, Initial residual = 0, Final residual = 0, No Iterations 0
diagonal:  Solving for rhoUz, Initial residual = 0, Final residual = 0, No Iterations 0
smoothSolver:  Solving for Ux, Initial residual = 8.2261e-08, Final residual = 8.2261e-08, No Iterations 0
smoothSolver:  Solving for Uy, Initial residual = 1.19754e-07, Final residual = 1.19754e-07, No Iterations 0
smoothSolver:  Solving for Uz, Initial residual = 1.82036e-09, Final residual = 1.82036e-09, No Iterations 0
diagonal:  Solving for rhoE, Initial residual = 0, Final residual = 0, No Iterations 0
smoothSolver:  Solving for e, Initial residual = 1.17732e-09, Final residual = 1.17732e-09, No Iterations 0
smoothSolver:  Solving for omega, Initial residual = 4.82249e-07, Final residual = 4.82249e-07, No Iterations 0
smoothSolver:  Solving for k, Initial residual = 1.59104e-06, Final residual = 1.82488e-09, No Iterations 1
ExecutionTime = 599.55 s  ClockTime = 600 s

deltaT = 5.07614e-06
Mean and max Courant Numbers = 0.00157278 0.0997068
Time = 0.014934

diagonal:  Solving for rho, Initial residual = 0, Final residual = 0, No Iterations 0
diagonal:  Solving for rhoUx, Initial residual = 0, Final residual = 0, No Iterations 0
diagonal:  Solving for rhoUy, Initial residual = 0, Final residual = 0, No Iterations 0
diagonal:  Solving for rhoUz, Initial residual = 0, Final residual = 0, No Iterations 0
smoothSolver:  Solving for Ux, Initial residual = 8.22636e-08, Final residual = 8.22636e-08, No Iterations 0
smoothSolver:  Solving for Uy, Initial residual = 1.19783e-07, Final residual = 1.19783e-07, No Iterations 0
smoothSolver:  Solving for Uz, Initial residual = 1.82078e-09, Final residual = 1.82078e-09, No Iterations 0
diagonal:  Solving for rhoE, Initial residual = 0, Final residual = 0, No Iterations 0
smoothSolver:  Solving for e, Initial residual = 1.17758e-09, Final residual = 1.17758e-09, No Iterations 0
smoothSolver:  Solving for omega, Initial residual = 4.82057e-07, Final residual = 4.82057e-07, No Iterations 0
smoothSolver:  Solving for k, Initial residual = 1.5889e-06, Final residual = 1.82323e-09, No Iterations 1
ExecutionTime = 599.76 s  ClockTime = 600 s

deltaT = 5.07614e-06
Mean and max Courant Numbers = 0.00157278 0.0997052
Time = 0.0149391

diagonal:  Solving for rho, Initial residual = 0, Final residual = 0, No Iterations 0
diagonal:  Solving for rhoUx, Initial residual = 0, Final residual = 0, No Iterations 0
diagonal:  Solving for rhoUy, Initial residual = 0, Final residual = 0, No Iterations 0
diagonal:  Solving for rhoUz, Initial residual = 0, Final residual = 0, No Iterations 0
smoothSolver:  Solving for Ux, Initial residual = 8.22633e-08, Final residual = 8.22633e-08, No Iterations 0
smoothSolver:  Solving for Uy, Initial residual = 1.19803e-07, Final residual = 1.19803e-07, No Iterations 0
smoothSolver:  Solving for Uz, Initial residual = 1.82121e-09, Final residual = 1.82121e-09, No Iterations 0
diagonal:  Solving for rhoE, Initial residual = 0, Final residual = 0, No Iterations 0
smoothSolver:  Solving for e, Initial residual = 1.17785e-09, Final residual = 1.17785e-09, No Iterations 0
smoothSolver:  Solving for omega, Initial residual = 4.8184e-07, Final residual = 4.8184e-07, No Iterations 0
smoothSolver:  Solving for k, Initial residual = 1.58672e-06, Final residual = 1.8216e-09, No Iterations 1
ExecutionTime = 599.98 s  ClockTime = 600 s

deltaT = 5.07614e-06
Mean and max Courant Numbers = 0.00157278 0.0997043
Time = 0.0149442

diagonal:  Solving for rho, Initial residual = 0, Final residual = 0, No Iterations 0
diagonal:  Solving for rhoUx, Initial residual = 0, Final residual = 0, No Iterations 0
diagonal:  Solving for rhoUy, Initial residual = 0, Final residual = 0, No Iterations 0
diagonal:  Solving for rhoUz, Initial residual = 0, Final residual = 0, No Iterations 0
smoothSolver:  Solving for Ux, Initial residual = 8.22695e-08, Final residual = 8.22695e-08, No Iterations 0
smoothSolver:  Solving for Uy, Initial residual = 1.1982e-07, Final residual = 1.1982e-07, No Iterations 0
smoothSolver:  Solving for Uz, Initial residual = 1.82163e-09, Final residual = 1.82163e-09, No Iterations 0
diagonal:  Solving for rhoE, Initial residual = 0, Final residual = 0, No Iterations 0
smoothSolver:  Solving for e, Initial residual = 1.17812e-09, Final residual = 1.17812e-09, No Iterations 0
smoothSolver:  Solving for omega, Initial residual = 4.81643e-07, Final residual = 4.81643e-07, No Iterations 0
smoothSolver:  Solving for k, Initial residual = 1.58459e-06, Final residual = 1.81993e-09, No Iterations 1
ExecutionTime = 600.2 s  ClockTime = 600 s

deltaT = 5.07614e-06
Mean and max Courant Numbers = 0.00157278 0.0997029
Time = 0.0149492

diagonal:  Solving for rho, Initial residual = 0, Final residual = 0, No Iterations 0
diagonal:  Solving for rhoUx, Initial residual = 0, Final residual = 0, No Iterations 0
diagonal:  Solving for rhoUy, Initial residual = 0, Final residual = 0, No Iterations 0
diagonal:  Solving for rhoUz, Initial residual = 0, Final residual = 0, No Iterations 0
smoothSolver:  Solving for Ux, Initial residual = 8.22772e-08, Final residual = 8.22772e-08, No Iterations 0
smoothSolver:  Solving for Uy, Initial residual = 1.19848e-07, Final residual = 1.19848e-07, No Iterations 0
smoothSolver:  Solving for Uz, Initial residual = 1.82205e-09, Final residual = 1.82205e-09, No Iterations 0
diagonal:  Solving for rhoE, Initial residual = 0, Final residual = 0, No Iterations 0
smoothSolver:  Solving for e, Initial residual = 1.17838e-09, Final residual = 1.17838e-09, No Iterations 0
smoothSolver:  Solving for omega, Initial residual = 4.81438e-07, Final residual = 4.81438e-07, No Iterations 0
smoothSolver:  Solving for k, Initial residual = 1.58242e-06, Final residual = 1.81834e-09, No Iterations 1
ExecutionTime = 600.43 s  ClockTime = 601 s

deltaT = 5.07614e-06
Mean and max Courant Numbers = 0.00157278 0.0997021
Time = 0.0149543

diagonal:  Solving for rho, Initial residual = 0, Final residual = 0, No Iterations 0
diagonal:  Solving for rhoUx, Initial residual = 0, Final residual = 0, No Iterations 0
diagonal:  Solving for rhoUy, Initial residual = 0, Final residual = 0, No Iterations 0
diagonal:  Solving for rhoUz, Initial residual = 0, Final residual = 0, No Iterations 0
smoothSolver:  Solving for Ux, Initial residual = 8.22746e-08, Final residual = 8.22746e-08, No Iterations 0
smoothSolver:  Solving for Uy, Initial residual = 1.19868e-07, Final residual = 1.19868e-07, No Iterations 0
smoothSolver:  Solving for Uz, Initial residual = 1.82247e-09, Final residual = 1.82247e-09, No Iterations 0
diagonal:  Solving for rhoE, Initial residual = 0, Final residual = 0, No Iterations 0
smoothSolver:  Solving for e, Initial residual = 1.17865e-09, Final residual = 1.17865e-09, No Iterations 0
smoothSolver:  Solving for omega, Initial residual = 4.81225e-07, Final residual = 4.81225e-07, No Iterations 0
smoothSolver:  Solving for k, Initial residual = 1.58023e-06, Final residual = 1.81674e-09, No Iterations 1
ExecutionTime = 600.65 s  ClockTime = 601 s

deltaT = 5.07614e-06
Mean and max Courant Numbers = 0.00157278 0.0997014
Time = 0.0149594

diagonal:  Solving for rho, Initial residual = 0, Final residual = 0, No Iterations 0
diagonal:  Solving for rhoUx, Initial residual = 0, Final residual = 0, No Iterations 0
diagonal:  Solving for rhoUy, Initial residual = 0, Final residual = 0, No Iterations 0
diagonal:  Solving for rhoUz, Initial residual = 0, Final residual = 0, No Iterations 0
smoothSolver:  Solving for Ux, Initial residual = 8.2287e-08, Final residual = 8.2287e-08, No Iterations 0
smoothSolver:  Solving for Uy, Initial residual = 1.19894e-07, Final residual = 1.19894e-07, No Iterations 0
smoothSolver:  Solving for Uz, Initial residual = 1.8229e-09, Final residual = 1.8229e-09, No Iterations 0
diagonal:  Solving for rhoE, Initial residual = 0, Final residual = 0, No Iterations 0
smoothSolver:  Solving for e, Initial residual = 1.1789e-09, Final residual = 1.1789e-09, No Iterations 0
smoothSolver:  Solving for omega, Initial residual = 4.81021e-07, Final residual = 4.81021e-07, No Iterations 0
smoothSolver:  Solving for k, Initial residual = 1.57816e-06, Final residual = 1.81501e-09, No Iterations 1
ExecutionTime = 600.86 s  ClockTime = 601 s

deltaT = 5.07614e-06
Mean and max Courant Numbers = 0.00157278 0.099702
Time = 0.0149645

diagonal:  Solving for rho, Initial residual = 0, Final residual = 0, No Iterations 0
diagonal:  Solving for rhoUx, Initial residual = 0, Final residual = 0, No Iterations 0
diagonal:  Solving for rhoUy, Initial residual = 0, Final residual = 0, No Iterations 0
diagonal:  Solving for rhoUz, Initial residual = 0, Final residual = 0, No Iterations 0
smoothSolver:  Solving for Ux, Initial residual = 8.22941e-08, Final residual = 8.22941e-08, No Iterations 0
smoothSolver:  Solving for Uy, Initial residual = 1.19921e-07, Final residual = 1.19921e-07, No Iterations 0
smoothSolver:  Solving for Uz, Initial residual = 1.82332e-09, Final residual = 1.82332e-09, No Iterations 0
diagonal:  Solving for rhoE, Initial residual = 0, Final residual = 0, No Iterations 0
smoothSolver:  Solving for e, Initial residual = 1.17917e-09, Final residual = 1.17917e-09, No Iterations 0
smoothSolver:  Solving for omega, Initial residual = 4.80815e-07, Final residual = 4.80815e-07, No Iterations 0
smoothSolver:  Solving for k, Initial residual = 1.57595e-06, Final residual = 1.81345e-09, No Iterations 1
ExecutionTime = 601.08 s  ClockTime = 601 s

deltaT = 5.07614e-06
Mean and max Courant Numbers = 0.00157278 0.099701
Time = 0.0149695

diagonal:  Solving for rho, Initial residual = 0, Final residual = 0, No Iterations 0
diagonal:  Solving for rhoUx, Initial residual = 0, Final residual = 0, No Iterations 0
diagonal:  Solving for rhoUy, Initial residual = 0, Final residual = 0, No Iterations 0
diagonal:  Solving for rhoUz, Initial residual = 0, Final residual = 0, No Iterations 0
smoothSolver:  Solving for Ux, Initial residual = 8.23013e-08, Final residual = 8.23013e-08, No Iterations 0
smoothSolver:  Solving for Uy, Initial residual = 1.19933e-07, Final residual = 1.19933e-07, No Iterations 0
smoothSolver:  Solving for Uz, Initial residual = 1.82375e-09, Final residual = 1.82375e-09, No Iterations 0
diagonal:  Solving for rhoE, Initial residual = 0, Final residual = 0, No Iterations 0
smoothSolver:  Solving for e, Initial residual = 1.17944e-09, Final residual = 1.17944e-09, No Iterations 0
smoothSolver:  Solving for omega, Initial residual = 4.80625e-07, Final residual = 4.80625e-07, No Iterations 0
smoothSolver:  Solving for k, Initial residual = 1.57388e-06, Final residual = 1.81189e-09, No Iterations 1
ExecutionTime = 601.3 s  ClockTime = 601 s

deltaT = 5.07614e-06
Mean and max Courant Numbers = 0.00157278 0.0997085
Time = 0.0149746

diagonal:  Solving for rho, Initial residual = 0, Final residual = 0, No Iterations 0
diagonal:  Solving for rhoUx, Initial residual = 0, Final residual = 0, No Iterations 0
diagonal:  Solving for rhoUy, Initial residual = 0, Final residual = 0, No Iterations 0
diagonal:  Solving for rhoUz, Initial residual = 0, Final residual = 0, No Iterations 0
smoothSolver:  Solving for Ux, Initial residual = 8.23078e-08, Final residual = 8.23078e-08, No Iterations 0
smoothSolver:  Solving for Uy, Initial residual = 1.19958e-07, Final residual = 1.19958e-07, No Iterations 0
smoothSolver:  Solving for Uz, Initial residual = 1.82417e-09, Final residual = 1.82417e-09, No Iterations 0
diagonal:  Solving for rhoE, Initial residual = 0, Final residual = 0, No Iterations 0
smoothSolver:  Solving for e, Initial residual = 1.17971e-09, Final residual = 1.17971e-09, No Iterations 0
smoothSolver:  Solving for omega, Initial residual = 4.80402e-07, Final residual = 4.80402e-07, No Iterations 0
smoothSolver:  Solving for k, Initial residual = 1.57172e-06, Final residual = 1.81019e-09, No Iterations 1
ExecutionTime = 601.51 s  ClockTime = 602 s

deltaT = 5.07614e-06
Mean and max Courant Numbers = 0.00157278 0.099706
Time = 0.0149797

diagonal:  Solving for rho, Initial residual = 0, Final residual = 0, No Iterations 0
diagonal:  Solving for rhoUx, Initial residual = 0, Final residual = 0, No Iterations 0
diagonal:  Solving for rhoUy, Initial residual = 0, Final residual = 0, No Iterations 0
diagonal:  Solving for rhoUz, Initial residual = 0, Final residual = 0, No Iterations 0
smoothSolver:  Solving for Ux, Initial residual = 8.23129e-08, Final residual = 8.23129e-08, No Iterations 0
smoothSolver:  Solving for Uy, Initial residual = 1.19971e-07, Final residual = 1.19971e-07, No Iterations 0
smoothSolver:  Solving for Uz, Initial residual = 1.82459e-09, Final residual = 1.82459e-09, No Iterations 0
diagonal:  Solving for rhoE, Initial residual = 0, Final residual = 0, No Iterations 0
smoothSolver:  Solving for e, Initial residual = 1.17998e-09, Final residual = 1.17998e-09, No Iterations 0
smoothSolver:  Solving for omega, Initial residual = 4.80209e-07, Final residual = 4.80209e-07, No Iterations 0
smoothSolver:  Solving for k, Initial residual = 1.5696e-06, Final residual = 1.80867e-09, No Iterations 1
ExecutionTime = 601.73 s  ClockTime = 602 s

deltaT = 5.07614e-06
Mean and max Courant Numbers = 0.00157278 0.0997048
Time = 0.0149848

diagonal:  Solving for rho, Initial residual = 0, Final residual = 0, No Iterations 0
diagonal:  Solving for rhoUx, Initial residual = 0, Final residual = 0, No Iterations 0
diagonal:  Solving for rhoUy, Initial residual = 0, Final residual = 0, No Iterations 0
diagonal:  Solving for rhoUz, Initial residual = 0, Final residual = 0, No Iterations 0
smoothSolver:  Solving for Ux, Initial residual = 8.23307e-08, Final residual = 8.23307e-08, No Iterations 0
smoothSolver:  Solving for Uy, Initial residual = 1.20003e-07, Final residual = 1.20003e-07, No Iterations 0
smoothSolver:  Solving for Uz, Initial residual = 1.82502e-09, Final residual = 1.82502e-09, No Iterations 0
diagonal:  Solving for rhoE, Initial residual = 0, Final residual = 0, No Iterations 0
smoothSolver:  Solving for e, Initial residual = 1.18024e-09, Final residual = 1.18024e-09, No Iterations 0
smoothSolver:  Solving for omega, Initial residual = 4.7999e-07, Final residual = 4.7999e-07, No Iterations 0
smoothSolver:  Solving for k, Initial residual = 1.56749e-06, Final residual = 1.80688e-09, No Iterations 1
ExecutionTime = 601.94 s  ClockTime = 602 s

deltaT = 5.07614e-06
Mean and max Courant Numbers = 0.00157278 0.099703
Time = 0.0149898

diagonal:  Solving for rho, Initial residual = 0, Final residual = 0, No Iterations 0
diagonal:  Solving for rhoUx, Initial residual = 0, Final residual = 0, No Iterations 0
diagonal:  Solving for rhoUy, Initial residual = 0, Final residual = 0, No Iterations 0
diagonal:  Solving for rhoUz, Initial residual = 0, Final residual = 0, No Iterations 0
smoothSolver:  Solving for Ux, Initial residual = 8.23406e-08, Final residual = 8.23406e-08, No Iterations 0
smoothSolver:  Solving for Uy, Initial residual = 1.20022e-07, Final residual = 1.20022e-07, No Iterations 0
smoothSolver:  Solving for Uz, Initial residual = 1.82544e-09, Final residual = 1.82544e-09, No Iterations 0
diagonal:  Solving for rhoE, Initial residual = 0, Final residual = 0, No Iterations 0
smoothSolver:  Solving for e, Initial residual = 1.18052e-09, Final residual = 1.18052e-09, No Iterations 0
smoothSolver:  Solving for omega, Initial residual = 4.79799e-07, Final residual = 4.79799e-07, No Iterations 0
smoothSolver:  Solving for k, Initial residual = 1.56536e-06, Final residual = 1.80543e-09, No Iterations 1
ExecutionTime = 602.12 s  ClockTime = 602 s

deltaT = 5.07614e-06
Mean and max Courant Numbers = 0.00157278 0.0997017
Time = 0.0149949

diagonal:  Solving for rho, Initial residual = 0, Final residual = 0, No Iterations 0
diagonal:  Solving for rhoUx, Initial residual = 0, Final residual = 0, No Iterations 0
diagonal:  Solving for rhoUy, Initial residual = 0, Final residual = 0, No Iterations 0
diagonal:  Solving for rhoUz, Initial residual = 0, Final residual = 0, No Iterations 0
smoothSolver:  Solving for Ux, Initial residual = 8.23481e-08, Final residual = 8.23481e-08, No Iterations 0
smoothSolver:  Solving for Uy, Initial residual = 1.20044e-07, Final residual = 1.20044e-07, No Iterations 0
smoothSolver:  Solving for Uz, Initial residual = 1.82587e-09, Final residual = 1.82587e-09, No Iterations 0
diagonal:  Solving for rhoE, Initial residual = 0, Final residual = 0, No Iterations 0
smoothSolver:  Solving for e, Initial residual = 1.1808e-09, Final residual = 1.1808e-09, No Iterations 0
smoothSolver:  Solving for omega, Initial residual = 4.79581e-07, Final residual = 4.79581e-07, No Iterations 0
smoothSolver:  Solving for k, Initial residual = 1.56328e-06, Final residual = 1.80383e-09, No Iterations 1
ExecutionTime = 602.33 s  ClockTime = 603 s

deltaT = 5.07614e-06
Mean and max Courant Numbers = 0.00157278 0.0997016
Time = 0.015

diagonal:  Solving for rho, Initial residual = 0, Final residual = 0, No Iterations 0
diagonal:  Solving for rhoUx, Initial residual = 0, Final residual = 0, No Iterations 0
diagonal:  Solving for rhoUy, Initial residual = 0, Final residual = 0, No Iterations 0
diagonal:  Solving for rhoUz, Initial residual = 0, Final residual = 0, No Iterations 0
smoothSolver:  Solving for Ux, Initial residual = 8.23553e-08, Final residual = 8.23553e-08, No Iterations 0
smoothSolver:  Solving for Uy, Initial residual = 1.20064e-07, Final residual = 1.20064e-07, No Iterations 0
smoothSolver:  Solving for Uz, Initial residual = 1.8263e-09, Final residual = 1.8263e-09, No Iterations 0
diagonal:  Solving for rhoE, Initial residual = 0, Final residual = 0, No Iterations 0
smoothSolver:  Solving for e, Initial residual = 1.18109e-09, Final residual = 1.18109e-09, No Iterations 0
smoothSolver:  Solving for omega, Initial residual = 4.79405e-07, Final residual = 4.79405e-07, No Iterations 0
smoothSolver:  Solving for k, Initial residual = 1.56115e-06, Final residual = 1.80219e-09, No Iterations 1
ExecutionTime = 602.62 s  ClockTime = 603 s

End

Finalising parallel run
