/*---------------------------------------------------------------------------*\
| =========                 |                                                 |
| \\      /  F ield         | OpenFOAM: The Open Source CFD Toolbox           |
|  \\    /   O peration     | Version:  2412                                  |
|   \\  /    A nd           | Website:  www.openfoam.com                      |
|    \\/     M anipulation  |                                                 |
\*---------------------------------------------------------------------------*/
Build  : _e5c6ccc3-20250814 OPENFOAM=2412 patch=250814 version=2412
Arch   : "LSB;label=32;scalar=64"
Exec   : rhoCentralFoam -parallel
Date   : Jan 03 2026
Time   : 20:00:02
Host   : LAPTOP-FVD4ED85
PID    : 1053
I/O    : uncollated
Case   : /home/ericy/Rocket_CFD_ML/openfoam/combined_test_workflow
nProcs : 4
Hosts  :
(
    (LAPTOP-FVD4ED85 4)
)
Pstream initialized with:
    floatTransfer      : false
    maxCommsSize       : 0
    nProcsSimpleSum    : 0
    nonBlockingExchange: 0 (tuning: 0)
    exchange algorithm : 0
    commsType          : nonBlocking
    polling iterations : 0
trapFpe: Floating point exception trapping enabled (FOAM_SIGFPE).
fileModificationChecking : Monitoring run-time modified files using timeStampMaster (fileModificationSkew 5, maxFileModificationPolls 20)
allowSystemOperations : Allowing user-supplied system call operations

// * * * * * * * * * * * * * * * * * * * * * * * * * * * * * * * * * * * * * //
Create time

Create mesh for time = 0

Reading thermophysical properties

Selecting thermodynamics package 
{
    type            hePsiThermo;
    mixture         pureMixture;
    transport       sutherland;
    thermo          hConst;
    equationOfState perfectGas;
    specie          specie;
    energy          sensibleInternalEnergy;
}

Reading field U

Creating turbulence model

Selecting turbulence model type RAS
Selecting RAS turbulence model kOmegaSST
Selecting patchDistMethod meshWave
RAS
{
    model           kOmegaSST;
    turbulence      on;
    printCoeffs     on;
    alphaK1         0.85;
    alphaK2         1;
    alphaOmega1     0.5;
    alphaOmega2     0.856;
    gamma1          0.555556;
    gamma2          0.44;
    beta1           0.075;
    beta2           0.0828;
    betaStar        0.09;
    a1              0.31;
    b1              1;
    c1              10;
    F3              false;
    decayControl    false;
    kInf            0;
    omegaInf        0;
}


Starting time loop

forceCoeffs forces:
    p: p
    U: U
    rho: rho
    Not including porosity effects
    magUInf: 500
    lRef   : 1
    Aref   : 3.14
    rhoInf : 1.225
    Selecting all coefficients
    - Drag force: Cd
    - Drag force front: Cd(f)
    - Drag force rear: Cd(r)
    - Lift force: Cl
    - Lift force front: Cl(f)
    - Lift force rear: Cl(r)
    - Pitch moment: CmPitch
    - Roll moment: CmRoll
    - Yaw moment: CmYaw
    - Side force: Cs
    - Side force front: Cs(f)
    - Side force rear: Cs(r)


deltaT = 1.2e-06
Mean and max Courant Numbers = 0.000371113 0.0223763
Time = 1.2e-06

diagonal:  Solving for rho, Initial residual = 0, Final residual = 0, No Iterations 0
diagonal:  Solving for rhoUx, Initial residual = 0, Final residual = 0, No Iterations 0
diagonal:  Solving for rhoUy, Initial residual = 0, Final residual = 0, No Iterations 0
diagonal:  Solving for rhoUz, Initial residual = 0, Final residual = 0, No Iterations 0
smoothSolver:  Solving for Ux, Initial residual = 2.49929e-06, Final residual = 3.40329e-11, No Iterations 1
smoothSolver:  Solving for Uy, Initial residual = 2.72334e-06, Final residual = 4.41456e-11, No Iterations 1
smoothSolver:  Solving for Uz, Initial residual = 6.91852e-08, Final residual = 6.91852e-08, No Iterations 0
diagonal:  Solving for rhoE, Initial residual = 0, Final residual = 0, No Iterations 0
smoothSolver:  Solving for e, Initial residual = 2.64853e-07, Final residual = 2.64853e-07, No Iterations 0
smoothSolver:  Solving for omega, Initial residual = 4.70807e-08, Final residual = 4.70807e-08, No Iterations 0
smoothSolver:  Solving for k, Initial residual = 1.77041e-06, Final residual = 1.26226e-10, No Iterations 1
ExecutionTime = 0.62 s  ClockTime = 0 s

deltaT = 1.43998e-06
Mean and max Courant Numbers = 0.000451095 0.0268356
Time = 2.63998e-06

diagonal:  Solving for rho, Initial residual = 0, Final residual = 0, No Iterations 0
diagonal:  Solving for rhoUx, Initial residual = 0, Final residual = 0, No Iterations 0
diagonal:  Solving for rhoUy, Initial residual = 0, Final residual = 0, No Iterations 0
diagonal:  Solving for rhoUz, Initial residual = 0, Final residual = 0, No Iterations 0
smoothSolver:  Solving for Ux, Initial residual = 2.99855e-06, Final residual = 4.89842e-11, No Iterations 1
smoothSolver:  Solving for Uy, Initial residual = 3.26759e-06, Final residual = 6.35463e-11, No Iterations 1
smoothSolver:  Solving for Uz, Initial residual = 8.29925e-08, Final residual = 8.29925e-08, No Iterations 0
diagonal:  Solving for rhoE, Initial residual = 0, Final residual = 0, No Iterations 0
smoothSolver:  Solving for e, Initial residual = 1.35486e-07, Final residual = 1.35486e-07, No Iterations 0
smoothSolver:  Solving for omega, Initial residual = 3.40487e-08, Final residual = 3.40487e-08, No Iterations 0
smoothSolver:  Solving for k, Initial residual = 2.11336e-06, Final residual = 1.79885e-10, No Iterations 1
ExecutionTime = 0.87 s  ClockTime = 1 s

deltaT = 1.72801e-06
Mean and max Courant Numbers = 0.000532698 0.0321772
Time = 4.36798e-06

diagonal:  Solving for rho, Initial residual = 0, Final residual = 0, No Iterations 0
diagonal:  Solving for rhoUx, Initial residual = 0, Final residual = 0, No Iterations 0
diagonal:  Solving for rhoUy, Initial residual = 0, Final residual = 0, No Iterations 0
diagonal:  Solving for rhoUz, Initial residual = 0, Final residual = 0, No Iterations 0
smoothSolver:  Solving for Ux, Initial residual = 3.59633e-06, Final residual = 7.05025e-11, No Iterations 1
smoothSolver:  Solving for Uy, Initial residual = 3.91934e-06, Final residual = 9.14729e-11, No Iterations 1
smoothSolver:  Solving for Uz, Initial residual = 9.95399e-08, Final residual = 9.95399e-08, No Iterations 0
diagonal:  Solving for rhoE, Initial residual = 0, Final residual = 0, No Iterations 0
smoothSolver:  Solving for e, Initial residual = 2.10651e-07, Final residual = 2.10651e-07, No Iterations 0
smoothSolver:  Solving for omega, Initial residual = 6.35857e-08, Final residual = 6.35857e-08, No Iterations 0
smoothSolver:  Solving for k, Initial residual = 2.53819e-06, Final residual = 2.59037e-10, No Iterations 1
ExecutionTime = 1.11 s  ClockTime = 1 s

deltaT = 2.07351e-06
Mean and max Courant Numbers = 0.000644251 0.038567
Time = 6.44149e-06

diagonal:  Solving for rho, Initial residual = 0, Final residual = 0, No Iterations 0
diagonal:  Solving for rhoUx, Initial residual = 0, Final residual = 0, No Iterations 0
diagonal:  Solving for rhoUy, Initial residual = 0, Final residual = 0, No Iterations 0
diagonal:  Solving for rhoUz, Initial residual = 0, Final residual = 0, No Iterations 0
smoothSolver:  Solving for Ux, Initial residual = 4.31302e-06, Final residual = 1.0145e-10, No Iterations 1
smoothSolver:  Solving for Uy, Initial residual = 4.70085e-06, Final residual = 1.31645e-10, No Iterations 1
smoothSolver:  Solving for Uz, Initial residual = 1.19362e-07, Final residual = 1.19362e-07, No Iterations 0
diagonal:  Solving for rhoE, Initial residual = 0, Final residual = 0, No Iterations 0
smoothSolver:  Solving for e, Initial residual = 2.81318e-07, Final residual = 2.81318e-07, No Iterations 0
smoothSolver:  Solving for omega, Initial residual = 1.08996e-07, Final residual = 1.08996e-07, No Iterations 0
smoothSolver:  Solving for k, Initial residual = 3.07037e-06, Final residual = 3.77779e-10, No Iterations 1
ExecutionTime = 1.32 s  ClockTime = 1 s

deltaT = 2.48814e-06
Mean and max Courant Numbers = 0.000776775 0.0462183
Time = 8.92964e-06

diagonal:  Solving for rho, Initial residual = 0, Final residual = 0, No Iterations 0
diagonal:  Solving for rhoUx, Initial residual = 0, Final residual = 0, No Iterations 0
diagonal:  Solving for rhoUy, Initial residual = 0, Final residual = 0, No Iterations 0
diagonal:  Solving for rhoUz, Initial residual = 0, Final residual = 0, No Iterations 0
smoothSolver:  Solving for Ux, Initial residual = 5.17324e-06, Final residual = 1.4597e-10, No Iterations 1
smoothSolver:  Solving for Uy, Initial residual = 5.63899e-06, Final residual = 1.89448e-10, No Iterations 1
smoothSolver:  Solving for Uz, Initial residual = 1.43145e-07, Final residual = 1.43145e-07, No Iterations 0
diagonal:  Solving for rhoE, Initial residual = 0, Final residual = 0, No Iterations 0
smoothSolver:  Solving for e, Initial residual = 2.89069e-07, Final residual = 2.89069e-07, No Iterations 0
smoothSolver:  Solving for omega, Initial residual = 5.89162e-08, Final residual = 5.89162e-08, No Iterations 0
smoothSolver:  Solving for k, Initial residual = 3.65588e-06, Final residual = 5.35246e-10, No Iterations 1
ExecutionTime = 1.54 s  ClockTime = 1 s

deltaT = 2.98567e-06
Mean and max Courant Numbers = 0.000920662 0.0553763
Time = 1.19153e-05

diagonal:  Solving for rho, Initial residual = 0, Final residual = 0, No Iterations 0
diagonal:  Solving for rhoUx, Initial residual = 0, Final residual = 0, No Iterations 0
diagonal:  Solving for rhoUy, Initial residual = 0, Final residual = 0, No Iterations 0
diagonal:  Solving for rhoUz, Initial residual = 0, Final residual = 0, No Iterations 0
smoothSolver:  Solving for Ux, Initial residual = 6.20234e-06, Final residual = 2.09993e-10, No Iterations 1
smoothSolver:  Solving for Uy, Initial residual = 6.76174e-06, Final residual = 2.72597e-10, No Iterations 1
smoothSolver:  Solving for Uz, Initial residual = 1.71611e-07, Final residual = 1.71611e-07, No Iterations 0
diagonal:  Solving for rhoE, Initial residual = 0, Final residual = 0, No Iterations 0
smoothSolver:  Solving for e, Initial residual = 4.08949e-07, Final residual = 4.08949e-07, No Iterations 0
smoothSolver:  Solving for omega, Initial residual = 1.09423e-07, Final residual = 1.09423e-07, No Iterations 0
smoothSolver:  Solving for k, Initial residual = 4.39155e-06, Final residual = 7.70224e-10, No Iterations 1
ExecutionTime = 1.73 s  ClockTime = 1 s

deltaT = 3.58309e-06
Mean and max Courant Numbers = 0.00111328 0.0663428
Time = 1.54984e-05

diagonal:  Solving for rho, Initial residual = 0, Final residual = 0, No Iterations 0
diagonal:  Solving for rhoUx, Initial residual = 0, Final residual = 0, No Iterations 0
diagonal:  Solving for rhoUy, Initial residual = 0, Final residual = 0, No Iterations 0
diagonal:  Solving for rhoUz, Initial residual = 0, Final residual = 0, No Iterations 0
smoothSolver:  Solving for Ux, Initial residual = 7.43656e-06, Final residual = 3.02115e-10, No Iterations 1
smoothSolver:  Solving for Uy, Initial residual = 8.10865e-06, Final residual = 3.92276e-10, No Iterations 1
smoothSolver:  Solving for Uz, Initial residual = 2.05712e-07, Final residual = 2.05712e-07, No Iterations 0
diagonal:  Solving for rhoE, Initial residual = 0, Final residual = 0, No Iterations 0
smoothSolver:  Solving for e, Initial residual = 5.30091e-07, Final residual = 5.30091e-07, No Iterations 0
smoothSolver:  Solving for omega, Initial residual = 1.89123e-07, Final residual = 1.89123e-07, No Iterations 0
smoothSolver:  Solving for k, Initial residual = 5.3147e-06, Final residual = 1.12298e-09, No Iterations 1
ExecutionTime = 1.94 s  ClockTime = 2 s

deltaT = 4.29971e-06
Mean and max Courant Numbers = 0.001343 0.079458
Time = 1.97981e-05

diagonal:  Solving for rho, Initial residual = 0, Final residual = 0, No Iterations 0
diagonal:  Solving for rhoUx, Initial residual = 0, Final residual = 0, No Iterations 0
diagonal:  Solving for rhoUy, Initial residual = 0, Final residual = 0, No Iterations 0
diagonal:  Solving for rhoUz, Initial residual = 0, Final residual = 0, No Iterations 0
smoothSolver:  Solving for Ux, Initial residual = 8.91599e-06, Final residual = 4.34492e-10, No Iterations 1
smoothSolver:  Solving for Uy, Initial residual = 9.72365e-06, Final residual = 5.6432e-10, No Iterations 1
smoothSolver:  Solving for Uz, Initial residual = 2.46608e-07, Final residual = 2.46608e-07, No Iterations 0
diagonal:  Solving for rhoE, Initial residual = 0, Final residual = 0, No Iterations 0
smoothSolver:  Solving for e, Initial residual = 5.21852e-07, Final residual = 5.21852e-07, No Iterations 0
smoothSolver:  Solving for omega, Initial residual = 1.0187e-07, Final residual = 1.0187e-07, No Iterations 0
smoothSolver:  Solving for k, Initial residual = 6.33018e-06, Final residual = 1.5897e-09, No Iterations 1
ExecutionTime = 2.14 s  ClockTime = 2 s

deltaT = 5.16025e-06
Mean and max Courant Numbers = 0.00159143 0.0951632
Time = 2.49584e-05

diagonal:  Solving for rho, Initial residual = 0, Final residual = 0, No Iterations 0
diagonal:  Solving for rhoUx, Initial residual = 0, Final residual = 0, No Iterations 0
diagonal:  Solving for rhoUy, Initial residual = 0, Final residual = 0, No Iterations 0
diagonal:  Solving for rhoUz, Initial residual = 0, Final residual = 0, No Iterations 0
smoothSolver:  Solving for Ux, Initial residual = 1.06856e-05, Final residual = 6.24866e-10, No Iterations 1
smoothSolver:  Solving for Uy, Initial residual = 1.16565e-05, Final residual = 8.11853e-10, No Iterations 1
smoothSolver:  Solving for Uz, Initial residual = 2.95495e-07, Final residual = 2.95495e-07, No Iterations 0
diagonal:  Solving for rhoE, Initial residual = 0, Final residual = 0, No Iterations 0
smoothSolver:  Solving for e, Initial residual = 7.20517e-07, Final residual = 7.20517e-07, No Iterations 0
smoothSolver:  Solving for omega, Initial residual = 1.88422e-07, Final residual = 1.88422e-07, No Iterations 0
smoothSolver:  Solving for k, Initial residual = 7.60818e-06, Final residual = 2.28634e-09, No Iterations 1
ExecutionTime = 2.33 s  ClockTime = 2 s

deltaT = 6.19315e-06
Mean and max Courant Numbers = 0.00192344 0.11396
Time = 3.11515e-05

diagonal:  Solving for rho, Initial residual = 0, Final residual = 0, No Iterations 0
diagonal:  Solving for rhoUx, Initial residual = 0, Final residual = 0, No Iterations 0
diagonal:  Solving for rhoUy, Initial residual = 0, Final residual = 0, No Iterations 0
diagonal:  Solving for rhoUz, Initial residual = 0, Final residual = 0, No Iterations 0
smoothSolver:  Solving for Ux, Initial residual = 1.28044e-05, Final residual = 8.98441e-10, No Iterations 1
smoothSolver:  Solving for Uy, Initial residual = 1.39721e-05, Final residual = 1.16775e-09, No Iterations 1
smoothSolver:  Solving for Uz, Initial residual = 3.5394e-07, Final residual = 3.5394e-07, No Iterations 0
diagonal:  Solving for rhoE, Initial residual = 0, Final residual = 0, No Iterations 0
smoothSolver:  Solving for e, Initial residual = 9.30932e-07, Final residual = 9.30932e-07, No Iterations 0
smoothSolver:  Solving for omega, Initial residual = 3.22022e-07, Final residual = 3.22022e-07, No Iterations 0
smoothSolver:  Solving for k, Initial residual = 9.20932e-06, Final residual = 3.32929e-09, No Iterations 1
ExecutionTime = 2.52 s  ClockTime = 2 s

deltaT = 7.28057e-06
Mean and max Courant Numbers = 0.00227258 0.133658
Time = 3.84321e-05

diagonal:  Solving for rho, Initial residual = 0, Final residual = 0, No Iterations 0
diagonal:  Solving for rhoUx, Initial residual = 0, Final residual = 0, No Iterations 0
diagonal:  Solving for rhoUy, Initial residual = 0, Final residual = 0, No Iterations 0
diagonal:  Solving for rhoUz, Initial residual = 0, Final residual = 0, No Iterations 0
smoothSolver:  Solving for Ux, Initial residual = 1.50286e-05, Final residual = 1.23907e-09, No Iterations 1
smoothSolver:  Solving for Uy, Initial residual = 1.64048e-05, Final residual = 1.61123e-09, No Iterations 1
smoothSolver:  Solving for Uz, Initial residual = 4.15386e-07, Final residual = 4.15386e-07, No Iterations 0
diagonal:  Solving for rhoE, Initial residual = 0, Final residual = 0, No Iterations 0
smoothSolver:  Solving for e, Initial residual = 9.74341e-07, Final residual = 9.74341e-07, No Iterations 0
smoothSolver:  Solving for omega, Initial residual = 1.7214e-07, Final residual = 1.7214e-07, No Iterations 0
smoothSolver:  Solving for k, Initial residual = 1.07551e-05, Final residual = 4.51985e-09, No Iterations 1
ExecutionTime = 2.72 s  ClockTime = 2 s

deltaT = 8.36777e-06
Mean and max Courant Numbers = 0.00258026 0.153261
Time = 4.67999e-05

diagonal:  Solving for rho, Initial residual = 0, Final residual = 0, No Iterations 0
diagonal:  Solving for rhoUx, Initial residual = 0, Final residual = 0, No Iterations 0
diagonal:  Solving for rhoUy, Initial residual = 0, Final residual = 0, No Iterations 0
diagonal:  Solving for rhoUz, Initial residual = 0, Final residual = 0, No Iterations 0
smoothSolver:  Solving for Ux, Initial residual = 1.72351e-05, Final residual = 1.63286e-09, No Iterations 1
smoothSolver:  Solving for Uy, Initial residual = 1.88215e-05, Final residual = 2.12448e-09, No Iterations 1
smoothSolver:  Solving for Uz, Initial residual = 4.76199e-07, Final residual = 4.76199e-07, No Iterations 0
diagonal:  Solving for rhoE, Initial residual = 0, Final residual = 0, No Iterations 0
smoothSolver:  Solving for e, Initial residual = 1.27127e-06, Final residual = 1.27127e-06, No Iterations 0
smoothSolver:  Solving for omega, Initial residual = 3.05928e-07, Final residual = 3.05928e-07, No Iterations 0
smoothSolver:  Solving for k, Initial residual = 1.23875e-05, Final residual = 5.95544e-09, No Iterations 1
ExecutionTime = 2.94 s  ClockTime = 3 s

deltaT = 9.45806e-06
Mean and max Courant Numbers = 0.0029374 0.172851
Time = 5.62579e-05

diagonal:  Solving for rho, Initial residual = 0, Final residual = 0, No Iterations 0
diagonal:  Solving for rhoUx, Initial residual = 0, Final residual = 0, No Iterations 0
diagonal:  Solving for rhoUy, Initial residual = 0, Final residual = 0, No Iterations 0
diagonal:  Solving for rhoUz, Initial residual = 0, Final residual = 0, No Iterations 0
smoothSolver:  Solving for Ux, Initial residual = 1.94347e-05, Final residual = 2.08054e-09, No Iterations 1
smoothSolver:  Solving for Uy, Initial residual = 2.12338e-05, Final residual = 2.70862e-09, No Iterations 1
smoothSolver:  Solving for Uz, Initial residual = 5.36626e-07, Final residual = 5.36626e-07, No Iterations 0
diagonal:  Solving for rhoE, Initial residual = 0, Final residual = 0, No Iterations 0
smoothSolver:  Solving for e, Initial residual = 1.53262e-06, Final residual = 1.53262e-06, No Iterations 0
smoothSolver:  Solving for omega, Initial residual = 4.98488e-07, Final residual = 4.98488e-07, No Iterations 0
smoothSolver:  Solving for k, Initial residual = 1.41338e-05, Final residual = 7.68633e-09, No Iterations 1
ExecutionTime = 3.11 s  ClockTime = 3 s

deltaT = 1.05535e-05
Mean and max Courant Numbers = 0.00329897 0.192718
Time = 6.68114e-05

diagonal:  Solving for rho, Initial residual = 0, Final residual = 0, No Iterations 0
diagonal:  Solving for rhoUx, Initial residual = 0, Final residual = 0, No Iterations 0
diagonal:  Solving for rhoUy, Initial residual = 0, Final residual = 0, No Iterations 0
diagonal:  Solving for rhoUz, Initial residual = 0, Final residual = 0, No Iterations 0
smoothSolver:  Solving for Ux, Initial residual = 2.16332e-05, Final residual = 2.58324e-09, No Iterations 1
smoothSolver:  Solving for Uy, Initial residual = 2.36484e-05, Final residual = 3.36486e-09, No Iterations 1
smoothSolver:  Solving for Uz, Initial residual = 5.97317e-07, Final residual = 5.97317e-07, No Iterations 0
diagonal:  Solving for rhoE, Initial residual = 0, Final residual = 0, No Iterations 0
smoothSolver:  Solving for e, Initial residual = 1.48228e-06, Final residual = 1.48228e-06, No Iterations 0
smoothSolver:  Solving for omega, Initial residual = 2.51849e-07, Final residual = 2.51849e-07, No Iterations 0
smoothSolver:  Solving for k, Initial residual = 1.56772e-05, Final residual = 9.38788e-09, No Iterations 1
ExecutionTime = 3.32 s  ClockTime = 3 s

deltaT = 1.09561e-05
Mean and max Courant Numbers = 0.00337904 0.199922
Time = 7.77675e-05

diagonal:  Solving for rho, Initial residual = 0, Final residual = 0, No Iterations 0
diagonal:  Solving for rhoUx, Initial residual = 0, Final residual = 0, No Iterations 0
diagonal:  Solving for rhoUy, Initial residual = 0, Final residual = 0, No Iterations 0
diagonal:  Solving for rhoUz, Initial residual = 0, Final residual = 0, No Iterations 0
smoothSolver:  Solving for Ux, Initial residual = 2.23951e-05, Final residual = 2.77637e-09, No Iterations 1
smoothSolver:  Solving for Uy, Initial residual = 2.44956e-05, Final residual = 3.6183e-09, No Iterations 1
smoothSolver:  Solving for Uz, Initial residual = 6.18056e-07, Final residual = 6.18056e-07, No Iterations 0
diagonal:  Solving for rhoE, Initial residual = 0, Final residual = 0, No Iterations 0
smoothSolver:  Solving for e, Initial residual = 1.70702e-06, Final residual = 1.70702e-06, No Iterations 0
smoothSolver:  Solving for omega, Initial residual = 4.00865e-07, Final residual = 4.00865e-07, No Iterations 0
smoothSolver:  Solving for k, Initial residual = 1.63239e-05, Final residual = 1.00847e-08, No Iterations 1
ExecutionTime = 3.64 s  ClockTime = 3 s

deltaT = 1.09642e-05
Mean and max Courant Numbers = 0.00340533 0.199861
Time = 8.87317e-05

diagonal:  Solving for rho, Initial residual = 0, Final residual = 0, No Iterations 0
diagonal:  Solving for rhoUx, Initial residual = 0, Final residual = 0, No Iterations 0
diagonal:  Solving for rhoUy, Initial residual = 0, Final residual = 0, No Iterations 0
diagonal:  Solving for rhoUz, Initial residual = 0, Final residual = 0, No Iterations 0
smoothSolver:  Solving for Ux, Initial residual = 2.23497e-05, Final residual = 2.77274e-09, No Iterations 1
smoothSolver:  Solving for Uy, Initial residual = 2.44627e-05, Final residual = 3.61553e-09, No Iterations 1
smoothSolver:  Solving for Uz, Initial residual = 6.1637e-07, Final residual = 6.1637e-07, No Iterations 0
diagonal:  Solving for rhoE, Initial residual = 0, Final residual = 0, No Iterations 0
smoothSolver:  Solving for e, Initial residual = 1.79916e-06, Final residual = 1.79916e-06, No Iterations 0
smoothSolver:  Solving for omega, Initial residual = 8.68783e-07, Final residual = 8.68783e-07, No Iterations 0
smoothSolver:  Solving for k, Initial residual = 1.66504e-05, Final residual = 1.03244e-08, No Iterations 1
ExecutionTime = 3.9 s  ClockTime = 4 s

deltaT = 1.09722e-05
Mean and max Courant Numbers = 0.00354894 0.579836
Time = 9.97039e-05

diagonal:  Solving for rho, Initial residual = 0, Final residual = 0, No Iterations 0
diagonal:  Solving for rhoUx, Initial residual = 0, Final residual = 0, No Iterations 0
diagonal:  Solving for rhoUy, Initial residual = 0, Final residual = 0, No Iterations 0
diagonal:  Solving for rhoUz, Initial residual = 0, Final residual = 0, No Iterations 0
smoothSolver:  Solving for Ux, Initial residual = 2.23088e-05, Final residual = 2.76916e-09, No Iterations 1
smoothSolver:  Solving for Uy, Initial residual = 2.44357e-05, Final residual = 3.61278e-09, No Iterations 1
smoothSolver:  Solving for Uz, Initial residual = 6.15537e-07, Final residual = 6.15537e-07, No Iterations 0
diagonal:  Solving for rhoE, Initial residual = 0, Final residual = 0, No Iterations 0
smoothSolver:  Solving for e, Initial residual = 1.07945e-06, Final residual = 1.07945e-06, No Iterations 0
smoothSolver:  Solving for omega, Initial residual = 3.47762e-07, Final residual = 3.47762e-07, No Iterations 0
smoothSolver:  Solving for k, Initial residual = 1.64648e-05, Final residual = 1.00658e-08, No Iterations 1
bounding k, min: -7.16869e-06 max: 132158 average: 348.485
ExecutionTime = 4.16 s  ClockTime = 4 s

deltaT = 3.78468e-06
Mean and max Courant Numbers = 0.00117245 0.0686456
Time = 0.000103489

diagonal:  Solving for rho, Initial residual = 0, Final residual = 0, No Iterations 0
diagonal:  Solving for rhoUx, Initial residual = 0, Final residual = 0, No Iterations 0
diagonal:  Solving for rhoUy, Initial residual = 0, Final residual = 0, No Iterations 0
diagonal:  Solving for rhoUz, Initial residual = 0, Final residual = 0, No Iterations 0
smoothSolver:  Solving for Ux, Initial residual = 7.65965e-06, Final residual = 3.28061e-10, No Iterations 1
smoothSolver:  Solving for Uy, Initial residual = 8.39161e-06, Final residual = 4.28031e-10, No Iterations 1
smoothSolver:  Solving for Uz, Initial residual = 2.12105e-07, Final residual = 2.12105e-07, No Iterations 0
diagonal:  Solving for rhoE, Initial residual = 0, Final residual = 0, No Iterations 0
smoothSolver:  Solving for e, Initial residual = 3.93995e-07, Final residual = 3.93995e-07, No Iterations 0
smoothSolver:  Solving for omega, Initial residual = 1.38481e-07, Final residual = 1.38481e-07, No Iterations 0
smoothSolver:  Solving for k, Initial residual = 5.68114e-06, Final residual = 1.18755e-09, No Iterations 1
ExecutionTime = 4.4 s  ClockTime = 4 s

deltaT = 4.54162e-06
Mean and max Courant Numbers = 0.00141614 0.0822867
Time = 0.00010803

diagonal:  Solving for rho, Initial residual = 0, Final residual = 0, No Iterations 0
diagonal:  Solving for rhoUx, Initial residual = 0, Final residual = 0, No Iterations 0
diagonal:  Solving for rhoUy, Initial residual = 0, Final residual = 0, No Iterations 0
diagonal:  Solving for rhoUz, Initial residual = 0, Final residual = 0, No Iterations 0
smoothSolver:  Solving for Ux, Initial residual = 9.14082e-06, Final residual = 4.69732e-10, No Iterations 1
smoothSolver:  Solving for Uy, Initial residual = 1.00167e-05, Final residual = 6.1297e-10, No Iterations 1
smoothSolver:  Solving for Uz, Initial residual = 2.54151e-07, Final residual = 2.54151e-07, No Iterations 0
diagonal:  Solving for rhoE, Initial residual = 0, Final residual = 0, No Iterations 0
smoothSolver:  Solving for e, Initial residual = 4.59823e-07, Final residual = 4.59823e-07, No Iterations 0
smoothSolver:  Solving for omega, Initial residual = 2.3527e-07, Final residual = 2.3527e-07, No Iterations 0
smoothSolver:  Solving for k, Initial residual = 6.87168e-06, Final residual = 1.73161e-09, No Iterations 1
ExecutionTime = 4.59 s  ClockTime = 4 s

deltaT = 5.44895e-06
Mean and max Courant Numbers = 0.00171035 0.0986621
Time = 0.000113479

diagonal:  Solving for rho, Initial residual = 0, Final residual = 0, No Iterations 0
diagonal:  Solving for rhoUx, Initial residual = 0, Final residual = 0, No Iterations 0
diagonal:  Solving for rhoUy, Initial residual = 0, Final residual = 0, No Iterations 0
diagonal:  Solving for rhoUz, Initial residual = 0, Final residual = 0, No Iterations 0
smoothSolver:  Solving for Ux, Initial residual = 1.08978e-05, Final residual = 6.71585e-10, No Iterations 1
smoothSolver:  Solving for Uy, Initial residual = 1.19438e-05, Final residual = 8.76525e-10, No Iterations 1
smoothSolver:  Solving for Uz, Initial residual = 3.0455e-07, Final residual = 3.0455e-07, No Iterations 0
diagonal:  Solving for rhoE, Initial residual = 0, Final residual = 0, No Iterations 0
smoothSolver:  Solving for e, Initial residual = 5.33008e-07, Final residual = 5.33008e-07, No Iterations 0
smoothSolver:  Solving for omega, Initial residual = 1.33625e-07, Final residual = 1.33625e-07, No Iterations 0
smoothSolver:  Solving for k, Initial residual = 8.18988e-06, Final residual = 2.45234e-09, No Iterations 1
ExecutionTime = 4.81 s  ClockTime = 4 s

deltaT = 6.53778e-06
Mean and max Courant Numbers = 0.00202624 0.1183
Time = 0.000120017

diagonal:  Solving for rho, Initial residual = 0, Final residual = 0, No Iterations 0
diagonal:  Solving for rhoUx, Initial residual = 0, Final residual = 0, No Iterations 0
diagonal:  Solving for rhoUy, Initial residual = 0, Final residual = 0, No Iterations 0
diagonal:  Solving for rhoUz, Initial residual = 0, Final residual = 0, No Iterations 0
smoothSolver:  Solving for Ux, Initial residual = 1.29738e-05, Final residual = 9.58959e-10, No Iterations 1
smoothSolver:  Solving for Uy, Initial residual = 1.4221e-05, Final residual = 1.25187e-09, No Iterations 1
smoothSolver:  Solving for Uz, Initial residual = 3.64684e-07, Final residual = 3.64684e-07, No Iterations 0
diagonal:  Solving for rhoE, Initial residual = 0, Final residual = 0, No Iterations 0
smoothSolver:  Solving for e, Initial residual = 6.16611e-07, Final residual = 6.16611e-07, No Iterations 0
smoothSolver:  Solving for omega, Initial residual = 2.39038e-07, Final residual = 2.39038e-07, No Iterations 0
smoothSolver:  Solving for k, Initial residual = 9.84421e-06, Final residual = 3.52779e-09, No Iterations 1
ExecutionTime = 5 s  ClockTime = 5 s

deltaT = 7.64252e-06
Mean and max Courant Numbers = 0.00238321 0.138224
Time = 0.000127659

diagonal:  Solving for rho, Initial residual = 0, Final residual = 0, No Iterations 0
diagonal:  Solving for rhoUx, Initial residual = 0, Final residual = 0, No Iterations 0
diagonal:  Solving for rhoUy, Initial residual = 0, Final residual = 0, No Iterations 0
diagonal:  Solving for rhoUz, Initial residual = 0, Final residual = 0, No Iterations 0
smoothSolver:  Solving for Ux, Initial residual = 1.50309e-05, Final residual = 1.29808e-09, No Iterations 1
smoothSolver:  Solving for Uy, Initial residual = 1.64784e-05, Final residual = 1.69504e-09, No Iterations 1
smoothSolver:  Solving for Uz, Initial residual = 4.25289e-07, Final residual = 4.25289e-07, No Iterations 0
diagonal:  Solving for rhoE, Initial residual = 0, Final residual = 0, No Iterations 0
smoothSolver:  Solving for e, Initial residual = 6.91451e-07, Final residual = 6.91451e-07, No Iterations 0
smoothSolver:  Solving for omega, Initial residual = 4.32059e-07, Final residual = 4.32059e-07, No Iterations 0
smoothSolver:  Solving for k, Initial residual = 1.1625e-05, Final residual = 4.88979e-09, No Iterations 1
ExecutionTime = 5.2 s  ClockTime = 5 s

deltaT = 8.74844e-06
Mean and max Courant Numbers = 0.00276872 0.158131
Time = 0.000136408

diagonal:  Solving for rho, Initial residual = 0, Final residual = 0, No Iterations 0
diagonal:  Solving for rhoUx, Initial residual = 0, Final residual = 0, No Iterations 0
diagonal:  Solving for rhoUy, Initial residual = 0, Final residual = 0, No Iterations 0
diagonal:  Solving for rhoUz, Initial residual = 0, Final residual = 0, No Iterations 0
smoothSolver:  Solving for Ux, Initial residual = 1.70353e-05, Final residual = 1.68284e-09, No Iterations 1
smoothSolver:  Solving for Uy, Initial residual = 1.86784e-05, Final residual = 2.19818e-09, No Iterations 1
smoothSolver:  Solving for Uz, Initial residual = 4.85981e-07, Final residual = 4.85981e-07, No Iterations 0
diagonal:  Solving for rhoE, Initial residual = 0, Final residual = 0, No Iterations 0
smoothSolver:  Solving for e, Initial residual = 7.1238e-07, Final residual = 7.1238e-07, No Iterations 0
smoothSolver:  Solving for omega, Initial residual = 2.19041e-07, Final residual = 2.19041e-07, No Iterations 0
smoothSolver:  Solving for k, Initial residual = 1.32104e-05, Final residual = 6.28305e-09, No Iterations 1
ExecutionTime = 5.41 s  ClockTime = 5 s

deltaT = 9.85649e-06
Mean and max Courant Numbers = 0.00305756 0.178034
Time = 0.000146264

diagonal:  Solving for rho, Initial residual = 0, Final residual = 0, No Iterations 0
diagonal:  Solving for rhoUx, Initial residual = 0, Final residual = 0, No Iterations 0
diagonal:  Solving for rhoUy, Initial residual = 0, Final residual = 0, No Iterations 0
diagonal:  Solving for rhoUz, Initial residual = 0, Final residual = 0, No Iterations 0
smoothSolver:  Solving for Ux, Initial residual = 1.89704e-05, Final residual = 2.11022e-09, No Iterations 1
smoothSolver:  Solving for Uy, Initial residual = 2.08037e-05, Final residual = 2.75744e-09, No Iterations 1
smoothSolver:  Solving for Uz, Initial residual = 5.45924e-07, Final residual = 5.45924e-07, No Iterations 0
diagonal:  Solving for rhoE, Initial residual = 0, Final residual = 0, No Iterations 0
smoothSolver:  Solving for e, Initial residual = 7.29007e-07, Final residual = 7.29007e-07, No Iterations 0
smoothSolver:  Solving for omega, Initial residual = 3.61903e-07, Final residual = 3.61903e-07, No Iterations 0
smoothSolver:  Solving for k, Initial residual = 1.49291e-05, Final residual = 7.97212e-09, No Iterations 1
ExecutionTime = 5.6 s  ClockTime = 5 s

deltaT = 1.09622e-05
Mean and max Courant Numbers = 0.00342065 0.19844
Time = 0.000157227

diagonal:  Solving for rho, Initial residual = 0, Final residual = 0, No Iterations 0
diagonal:  Solving for rhoUx, Initial residual = 0, Final residual = 0, No Iterations 0
diagonal:  Solving for rhoUy, Initial residual = 0, Final residual = 0, No Iterations 0
diagonal:  Solving for rhoUz, Initial residual = 0, Final residual = 0, No Iterations 0
smoothSolver:  Solving for Ux, Initial residual = 2.08288e-05, Final residual = 2.57509e-09, No Iterations 1
smoothSolver:  Solving for Uy, Initial residual = 2.28453e-05, Final residual = 3.36616e-09, No Iterations 1
smoothSolver:  Solving for Uz, Initial residual = 6.05114e-07, Final residual = 6.05114e-07, No Iterations 0
diagonal:  Solving for rhoE, Initial residual = 0, Final residual = 0, No Iterations 0
smoothSolver:  Solving for e, Initial residual = 7.28306e-07, Final residual = 7.28306e-07, No Iterations 0
smoothSolver:  Solving for omega, Initial residual = 6.2259e-07, Final residual = 6.2259e-07, No Iterations 0
smoothSolver:  Solving for k, Initial residual = 1.67922e-05, Final residual = 9.99727e-09, No Iterations 1
ExecutionTime = 5.8 s  ClockTime = 5 s

deltaT = 1.1052e-05
Mean and max Courant Numbers = 0.00350144 0.368011
Time = 0.000168279

diagonal:  Solving for rho, Initial residual = 0, Final residual = 0, No Iterations 0
diagonal:  Solving for rhoUx, Initial residual = 0, Final residual = 0, No Iterations 0
diagonal:  Solving for rhoUy, Initial residual = 0, Final residual = 0, No Iterations 0
diagonal:  Solving for rhoUz, Initial residual = 0, Final residual = 0, No Iterations 0
smoothSolver:  Solving for Ux, Initial residual = 2.07378e-05, Final residual = 2.58282e-09, No Iterations 1
smoothSolver:  Solving for Uy, Initial residual = 2.27464e-05, Final residual = 3.37721e-09, No Iterations 1
smoothSolver:  Solving for Uz, Initial residual = 6.08629e-07, Final residual = 6.08629e-07, No Iterations 0
diagonal:  Solving for rhoE, Initial residual = 0, Final residual = 0, No Iterations 0
smoothSolver:  Solving for e, Initial residual = 6.8781e-07, Final residual = 6.8781e-07, No Iterations 0
smoothSolver:  Solving for omega, Initial residual = 2.93514e-07, Final residual = 2.93514e-07, No Iterations 0
smoothSolver:  Solving for k, Initial residual = 1.68354e-05, Final residual = 9.98421e-09, No Iterations 1
ExecutionTime = 5.99 s  ClockTime = 6 s

deltaT = 6.00718e-06
Mean and max Courant Numbers = 0.00186614 0.109496
Time = 0.000174286

diagonal:  Solving for rho, Initial residual = 0, Final residual = 0, No Iterations 0
diagonal:  Solving for rhoUx, Initial residual = 0, Final residual = 0, No Iterations 0
diagonal:  Solving for rhoUy, Initial residual = 0, Final residual = 0, No Iterations 0
diagonal:  Solving for rhoUz, Initial residual = 0, Final residual = 0, No Iterations 0
smoothSolver:  Solving for Ux, Initial residual = 1.11831e-05, Final residual = 7.57058e-10, No Iterations 1
smoothSolver:  Solving for Uy, Initial residual = 1.22669e-05, Final residual = 9.90043e-10, No Iterations 1
smoothSolver:  Solving for Uz, Initial residual = 3.30228e-07, Final residual = 3.30228e-07, No Iterations 0
diagonal:  Solving for rhoE, Initial residual = 0, Final residual = 0, No Iterations 0
smoothSolver:  Solving for e, Initial residual = 3.57329e-07, Final residual = 3.57329e-07, No Iterations 0
smoothSolver:  Solving for omega, Initial residual = 2.21198e-07, Final residual = 2.21198e-07, No Iterations 0
smoothSolver:  Solving for k, Initial residual = 9.1817e-06, Final residual = 2.94513e-09, No Iterations 1
ExecutionTime = 6.2 s  ClockTime = 6 s

deltaT = 7.10384e-06
Mean and max Courant Numbers = 0.00221882 0.129704
Time = 0.00018139

diagonal:  Solving for rho, Initial residual = 0, Final residual = 0, No Iterations 0
diagonal:  Solving for rhoUx, Initial residual = 0, Final residual = 0, No Iterations 0
diagonal:  Solving for rhoUy, Initial residual = 0, Final residual = 0, No Iterations 0
diagonal:  Solving for rhoUz, Initial residual = 0, Final residual = 0, No Iterations 0
smoothSolver:  Solving for Ux, Initial residual = 1.31044e-05, Final residual = 1.04863e-09, No Iterations 1
smoothSolver:  Solving for Uy, Initial residual = 1.4375e-05, Final residual = 1.37163e-09, No Iterations 1
smoothSolver:  Solving for Uz, Initial residual = 3.89663e-07, Final residual = 3.89663e-07, No Iterations 0
diagonal:  Solving for rhoE, Initial residual = 0, Final residual = 0, No Iterations 0
smoothSolver:  Solving for e, Initial residual = 4.06603e-07, Final residual = 4.06603e-07, No Iterations 0
smoothSolver:  Solving for omega, Initial residual = 3.72666e-07, Final residual = 3.72666e-07, No Iterations 0
smoothSolver:  Solving for k, Initial residual = 1.09515e-05, Final residual = 4.17171e-09, No Iterations 1
ExecutionTime = 6.39 s  ClockTime = 6 s

deltaT = 8.20067e-06
Mean and max Courant Numbers = 0.0025879 0.149979
Time = 0.00018959

diagonal:  Solving for rho, Initial residual = 0, Final residual = 0, No Iterations 0
diagonal:  Solving for rhoUx, Initial residual = 0, Final residual = 0, No Iterations 0
diagonal:  Solving for rhoUy, Initial residual = 0, Final residual = 0, No Iterations 0
diagonal:  Solving for rhoUz, Initial residual = 0, Final residual = 0, No Iterations 0
smoothSolver:  Solving for Ux, Initial residual = 1.49737e-05, Final residual = 1.38233e-09, No Iterations 1
smoothSolver:  Solving for Uy, Initial residual = 1.64257e-05, Final residual = 1.80853e-09, No Iterations 1
smoothSolver:  Solving for Uz, Initial residual = 4.49036e-07, Final residual = 4.49036e-07, No Iterations 0
diagonal:  Solving for rhoE, Initial residual = 0, Final residual = 0, No Iterations 0
smoothSolver:  Solving for e, Initial residual = 4.47478e-07, Final residual = 4.47478e-07, No Iterations 0
smoothSolver:  Solving for omega, Initial residual = 2.10615e-07, Final residual = 2.10615e-07, No Iterations 0
smoothSolver:  Solving for k, Initial residual = 1.25717e-05, Final residual = 5.47232e-09, No Iterations 1
ExecutionTime = 6.59 s  ClockTime = 6 s

deltaT = 9.29135e-06
Mean and max Courant Numbers = 0.00288778 0.170273
Time = 0.000198882

diagonal:  Solving for rho, Initial residual = 0, Final residual = 0, No Iterations 0
diagonal:  Solving for rhoUx, Initial residual = 0, Final residual = 0, No Iterations 0
diagonal:  Solving for rhoUy, Initial residual = 0, Final residual = 0, No Iterations 0
diagonal:  Solving for rhoUz, Initial residual = 0, Final residual = 0, No Iterations 0
smoothSolver:  Solving for Ux, Initial residual = 1.67676e-05, Final residual = 1.75306e-09, No Iterations 1
smoothSolver:  Solving for Uy, Initial residual = 1.83928e-05, Final residual = 2.29399e-09, No Iterations 1
smoothSolver:  Solving for Uz, Initial residual = 5.07355e-07, Final residual = 5.07355e-07, No Iterations 0
diagonal:  Solving for rhoE, Initial residual = 0, Final residual = 0, No Iterations 0
smoothSolver:  Solving for e, Initial residual = 4.88235e-07, Final residual = 4.88235e-07, No Iterations 0
smoothSolver:  Solving for omega, Initial residual = 3.4208e-07, Final residual = 3.4208e-07, No Iterations 0
smoothSolver:  Solving for k, Initial residual = 1.42831e-05, Final residual = 7.02549e-09, No Iterations 1
ExecutionTime = 6.79 s  ClockTime = 6 s

deltaT = 1.03795e-05
Mean and max Courant Numbers = 0.00324225 0.190662
Time = 0.000209261

diagonal:  Solving for rho, Initial residual = 0, Final residual = 0, No Iterations 0
diagonal:  Solving for rhoUx, Initial residual = 0, Final residual = 0, No Iterations 0
diagonal:  Solving for rhoUy, Initial residual = 0, Final residual = 0, No Iterations 0
diagonal:  Solving for rhoUz, Initial residual = 0, Final residual = 0, No Iterations 0
smoothSolver:  Solving for Ux, Initial residual = 1.84941e-05, Final residual = 2.15877e-09, No Iterations 1
smoothSolver:  Solving for Uy, Initial residual = 2.02851e-05, Final residual = 2.82539e-09, No Iterations 1
smoothSolver:  Solving for Uz, Initial residual = 5.65044e-07, Final residual = 5.65044e-07, No Iterations 0
diagonal:  Solving for rhoE, Initial residual = 0, Final residual = 0, No Iterations 0
smoothSolver:  Solving for e, Initial residual = 5.25509e-07, Final residual = 5.25509e-07, No Iterations 0
smoothSolver:  Solving for omega, Initial residual = 5.70283e-07, Final residual = 5.70283e-07, No Iterations 0
smoothSolver:  Solving for k, Initial residual = 1.61214e-05, Final residual = 8.89036e-09, No Iterations 1
ExecutionTime = 7.01 s  ClockTime = 7 s

deltaT = 1.08916e-05
Mean and max Courant Numbers = 0.0034541 0.200602
Time = 0.000220153

diagonal:  Solving for rho, Initial residual = 0, Final residual = 0, No Iterations 0
diagonal:  Solving for rhoUx, Initial residual = 0, Final residual = 0, No Iterations 0
diagonal:  Solving for rhoUy, Initial residual = 0, Final residual = 0, No Iterations 0
diagonal:  Solving for rhoUz, Initial residual = 0, Final residual = 0, No Iterations 0
smoothSolver:  Solving for Ux, Initial residual = 1.91548e-05, Final residual = 2.34461e-09, No Iterations 1
smoothSolver:  Solving for Uy, Initial residual = 2.10089e-05, Final residual = 3.06932e-09, No Iterations 1
smoothSolver:  Solving for Uz, Initial residual = 5.9167e-07, Final residual = 5.9167e-07, No Iterations 0
diagonal:  Solving for rhoE, Initial residual = 0, Final residual = 0, No Iterations 0
smoothSolver:  Solving for e, Initial residual = 5.25493e-07, Final residual = 5.25493e-07, No Iterations 0
smoothSolver:  Solving for omega, Initial residual = 2.84594e-07, Final residual = 2.84594e-07, No Iterations 0
smoothSolver:  Solving for k, Initial residual = 1.68281e-05, Final residual = 9.61805e-09, No Iterations 1
ExecutionTime = 7.21 s  ClockTime = 7 s

deltaT = 1.08595e-05
Mean and max Courant Numbers = 0.00337754 0.200569
Time = 0.000231012

diagonal:  Solving for rho, Initial residual = 0, Final residual = 0, No Iterations 0
diagonal:  Solving for rhoUx, Initial residual = 0, Final residual = 0, No Iterations 0
diagonal:  Solving for rhoUy, Initial residual = 0, Final residual = 0, No Iterations 0
diagonal:  Solving for rhoUz, Initial residual = 0, Final residual = 0, No Iterations 0
smoothSolver:  Solving for Ux, Initial residual = 1.8849e-05, Final residual = 2.29954e-09, No Iterations 1
smoothSolver:  Solving for Uy, Initial residual = 2.06721e-05, Final residual = 3.01088e-09, No Iterations 1
smoothSolver:  Solving for Uz, Initial residual = 5.8809e-07, Final residual = 5.8809e-07, No Iterations 0
diagonal:  Solving for rhoE, Initial residual = 0, Final residual = 0, No Iterations 0
smoothSolver:  Solving for e, Initial residual = 5.07609e-07, Final residual = 5.07609e-07, No Iterations 0
smoothSolver:  Solving for omega, Initial residual = 4.02187e-07, Final residual = 4.02187e-07, No Iterations 0
smoothSolver:  Solving for k, Initial residual = 1.68401e-05, Final residual = 9.55887e-09, No Iterations 1
ExecutionTime = 7.46 s  ClockTime = 7 s

deltaT = 1.08277e-05
Mean and max Courant Numbers = 0.00338363 0.200552
Time = 0.00024184

diagonal:  Solving for rho, Initial residual = 0, Final residual = 0, No Iterations 0
diagonal:  Solving for rhoUx, Initial residual = 0, Final residual = 0, No Iterations 0
diagonal:  Solving for rhoUy, Initial residual = 0, Final residual = 0, No Iterations 0
diagonal:  Solving for rhoUz, Initial residual = 0, Final residual = 0, No Iterations 0
smoothSolver:  Solving for Ux, Initial residual = 1.85542e-05, Final residual = 2.25614e-09, No Iterations 1
smoothSolver:  Solving for Uy, Initial residual = 2.03469e-05, Final residual = 2.95419e-09, No Iterations 1
smoothSolver:  Solving for Uz, Initial residual = 5.84516e-07, Final residual = 5.84516e-07, No Iterations 0
diagonal:  Solving for rhoE, Initial residual = 0, Final residual = 0, No Iterations 0
smoothSolver:  Solving for e, Initial residual = 4.91764e-07, Final residual = 4.91764e-07, No Iterations 0
smoothSolver:  Solving for omega, Initial residual = 5.71993e-07, Final residual = 5.71993e-07, No Iterations 0
smoothSolver:  Solving for k, Initial residual = 1.69567e-05, Final residual = 9.61979e-09, No Iterations 1
ExecutionTime = 7.68 s  ClockTime = 7 s

deltaT = 1.0796e-05
Mean and max Courant Numbers = 0.00341828 0.200542
Time = 0.000252636

diagonal:  Solving for rho, Initial residual = 0, Final residual = 0, No Iterations 0
diagonal:  Solving for rhoUx, Initial residual = 0, Final residual = 0, No Iterations 0
diagonal:  Solving for rhoUy, Initial residual = 0, Final residual = 0, No Iterations 0
diagonal:  Solving for rhoUz, Initial residual = 0, Final residual = 0, No Iterations 0
smoothSolver:  Solving for Ux, Initial residual = 1.82712e-05, Final residual = 2.21433e-09, No Iterations 1
smoothSolver:  Solving for Uy, Initial residual = 2.00333e-05, Final residual = 2.89919e-09, No Iterations 1
smoothSolver:  Solving for Uz, Initial residual = 5.81554e-07, Final residual = 5.81554e-07, No Iterations 0
diagonal:  Solving for rhoE, Initial residual = 0, Final residual = 0, No Iterations 0
smoothSolver:  Solving for e, Initial residual = 4.77721e-07, Final residual = 4.77721e-07, No Iterations 0
smoothSolver:  Solving for omega, Initial residual = 2.87788e-07, Final residual = 2.87788e-07, No Iterations 0
smoothSolver:  Solving for k, Initial residual = 1.68347e-05, Final residual = 9.40935e-09, No Iterations 1
ExecutionTime = 7.94 s  ClockTime = 8 s

deltaT = 1.07645e-05
Mean and max Courant Numbers = 0.00335013 0.200502
Time = 0.0002634

diagonal:  Solving for rho, Initial residual = 0, Final residual = 0, No Iterations 0
diagonal:  Solving for rhoUx, Initial residual = 0, Final residual = 0, No Iterations 0
diagonal:  Solving for rhoUy, Initial residual = 0, Final residual = 0, No Iterations 0
diagonal:  Solving for rhoUz, Initial residual = 0, Final residual = 0, No Iterations 0
smoothSolver:  Solving for Ux, Initial residual = 1.79918e-05, Final residual = 2.17378e-09, No Iterations 1
smoothSolver:  Solving for Uy, Initial residual = 1.97247e-05, Final residual = 2.84588e-09, No Iterations 1
smoothSolver:  Solving for Uz, Initial residual = 5.78076e-07, Final residual = 5.78076e-07, No Iterations 0
diagonal:  Solving for rhoE, Initial residual = 0, Final residual = 0, No Iterations 0
smoothSolver:  Solving for e, Initial residual = 4.68656e-07, Final residual = 4.68656e-07, No Iterations 0
smoothSolver:  Solving for omega, Initial residual = 4.00159e-07, Final residual = 4.00159e-07, No Iterations 0
smoothSolver:  Solving for k, Initial residual = 1.68464e-05, Final residual = 9.35296e-09, No Iterations 1
ExecutionTime = 8.18 s  ClockTime = 8 s

deltaT = 1.0741e-05
Mean and max Courant Numbers = 0.00335742 0.200584
Time = 0.000274141

diagonal:  Solving for rho, Initial residual = 0, Final residual = 0, No Iterations 0
diagonal:  Solving for rhoUx, Initial residual = 0, Final residual = 0, No Iterations 0
diagonal:  Solving for rhoUy, Initial residual = 0, Final residual = 0, No Iterations 0
diagonal:  Solving for rhoUz, Initial residual = 0, Final residual = 0, No Iterations 0
smoothSolver:  Solving for Ux, Initial residual = 1.77356e-05, Final residual = 2.13757e-09, No Iterations 1
smoothSolver:  Solving for Uy, Initial residual = 1.94411e-05, Final residual = 2.79821e-09, No Iterations 1
smoothSolver:  Solving for Uz, Initial residual = 5.75034e-07, Final residual = 5.75034e-07, No Iterations 0
diagonal:  Solving for rhoE, Initial residual = 0, Final residual = 0, No Iterations 0
smoothSolver:  Solving for e, Initial residual = 4.61936e-07, Final residual = 4.61936e-07, No Iterations 0
smoothSolver:  Solving for omega, Initial residual = 5.91027e-07, Final residual = 5.91027e-07, No Iterations 0
smoothSolver:  Solving for k, Initial residual = 1.69843e-05, Final residual = 9.43803e-09, No Iterations 1
ExecutionTime = 8.39 s  ClockTime = 8 s

deltaT = 1.07097e-05
Mean and max Courant Numbers = 0.00340456 0.200504
Time = 0.000284851

diagonal:  Solving for rho, Initial residual = 0, Final residual = 0, No Iterations 0
diagonal:  Solving for rhoUx, Initial residual = 0, Final residual = 0, No Iterations 0
diagonal:  Solving for rhoUy, Initial residual = 0, Final residual = 0, No Iterations 0
diagonal:  Solving for rhoUz, Initial residual = 0, Final residual = 0, No Iterations 0
smoothSolver:  Solving for Ux, Initial residual = 1.74766e-05, Final residual = 2.09943e-09, No Iterations 1
smoothSolver:  Solving for Uy, Initial residual = 1.91544e-05, Final residual = 2.74804e-09, No Iterations 1
smoothSolver:  Solving for Uz, Initial residual = 5.72203e-07, Final residual = 5.72203e-07, No Iterations 0
diagonal:  Solving for rhoE, Initial residual = 0, Final residual = 0, No Iterations 0
smoothSolver:  Solving for e, Initial residual = 4.56609e-07, Final residual = 4.56609e-07, No Iterations 0
smoothSolver:  Solving for omega, Initial residual = 2.93581e-07, Final residual = 2.93581e-07, No Iterations 0
smoothSolver:  Solving for k, Initial residual = 1.68528e-05, Final residual = 9.22315e-09, No Iterations 1
ExecutionTime = 8.62 s  ClockTime = 8 s

deltaT = 1.06864e-05
Mean and max Courant Numbers = 0.00332821 0.200552
Time = 0.000295537

diagonal:  Solving for rho, Initial residual = 0, Final residual = 0, No Iterations 0
diagonal:  Solving for rhoUx, Initial residual = 0, Final residual = 0, No Iterations 0
diagonal:  Solving for rhoUy, Initial residual = 0, Final residual = 0, No Iterations 0
diagonal:  Solving for rhoUz, Initial residual = 0, Final residual = 0, No Iterations 0
smoothSolver:  Solving for Ux, Initial residual = 1.7233e-05, Final residual = 2.06538e-09, No Iterations 1
smoothSolver:  Solving for Uy, Initial residual = 1.88848e-05, Final residual = 2.70316e-09, No Iterations 1
smoothSolver:  Solving for Uz, Initial residual = 5.69277e-07, Final residual = 5.69277e-07, No Iterations 0
diagonal:  Solving for rhoE, Initial residual = 0, Final residual = 0, No Iterations 0
smoothSolver:  Solving for e, Initial residual = 4.53593e-07, Final residual = 4.53593e-07, No Iterations 0
smoothSolver:  Solving for omega, Initial residual = 3.98545e-07, Final residual = 3.98545e-07, No Iterations 0
smoothSolver:  Solving for k, Initial residual = 1.68755e-05, Final residual = 9.18279e-09, No Iterations 1
ExecutionTime = 8.83 s  ClockTime = 8 s

deltaT = 1.06554e-05
Mean and max Courant Numbers = 0.00333112 0.200433
Time = 0.000306193

diagonal:  Solving for rho, Initial residual = 0, Final residual = 0, No Iterations 0
diagonal:  Solving for rhoUx, Initial residual = 0, Final residual = 0, No Iterations 0
diagonal:  Solving for rhoUy, Initial residual = 0, Final residual = 0, No Iterations 0
diagonal:  Solving for rhoUz, Initial residual = 0, Final residual = 0, No Iterations 0
smoothSolver:  Solving for Ux, Initial residual = 1.6984e-05, Final residual = 2.02914e-09, No Iterations 1
smoothSolver:  Solving for Uy, Initial residual = 1.86113e-05, Final residual = 2.65574e-09, No Iterations 1
smoothSolver:  Solving for Uz, Initial residual = 5.65938e-07, Final residual = 5.65938e-07, No Iterations 0
diagonal:  Solving for rhoE, Initial residual = 0, Final residual = 0, No Iterations 0
smoothSolver:  Solving for e, Initial residual = 4.51077e-07, Final residual = 4.51077e-07, No Iterations 0
smoothSolver:  Solving for omega, Initial residual = 5.72259e-07, Final residual = 5.72259e-07, No Iterations 0
smoothSolver:  Solving for k, Initial residual = 1.69889e-05, Final residual = 9.24804e-09, No Iterations 1
ExecutionTime = 9.02 s  ClockTime = 9 s

deltaT = 1.06323e-05
Mean and max Courant Numbers = 0.00337943 0.200435
Time = 0.000316825

diagonal:  Solving for rho, Initial residual = 0, Final residual = 0, No Iterations 0
diagonal:  Solving for rhoUx, Initial residual = 0, Final residual = 0, No Iterations 0
diagonal:  Solving for rhoUy, Initial residual = 0, Final residual = 0, No Iterations 0
diagonal:  Solving for rhoUz, Initial residual = 0, Final residual = 0, No Iterations 0
smoothSolver:  Solving for Ux, Initial residual = 1.67562e-05, Final residual = 1.99687e-09, No Iterations 1
smoothSolver:  Solving for Uy, Initial residual = 1.83608e-05, Final residual = 2.61352e-09, No Iterations 1
smoothSolver:  Solving for Uz, Initial residual = 5.63556e-07, Final residual = 5.63556e-07, No Iterations 0
diagonal:  Solving for rhoE, Initial residual = 0, Final residual = 0, No Iterations 0
smoothSolver:  Solving for e, Initial residual = 4.46938e-07, Final residual = 4.46938e-07, No Iterations 0
smoothSolver:  Solving for omega, Initial residual = 2.99587e-07, Final residual = 2.99587e-07, No Iterations 0
smoothSolver:  Solving for k, Initial residual = 1.68702e-05, Final residual = 9.0629e-09, No Iterations 1
ExecutionTime = 9.22 s  ClockTime = 9 s

deltaT = 1.06092e-05
Mean and max Courant Numbers = 0.00330537 0.200412
Time = 0.000327434

diagonal:  Solving for rho, Initial residual = 0, Final residual = 0, No Iterations 0
diagonal:  Solving for rhoUx, Initial residual = 0, Final residual = 0, No Iterations 0
diagonal:  Solving for rhoUy, Initial residual = 0, Final residual = 0, No Iterations 0
diagonal:  Solving for rhoUz, Initial residual = 0, Final residual = 0, No Iterations 0
smoothSolver:  Solving for Ux, Initial residual = 1.65303e-05, Final residual = 1.96546e-09, No Iterations 1
smoothSolver:  Solving for Uy, Initial residual = 1.8113e-05, Final residual = 2.57241e-09, No Iterations 1
smoothSolver:  Solving for Uz, Initial residual = 5.60708e-07, Final residual = 5.60708e-07, No Iterations 0
diagonal:  Solving for rhoE, Initial residual = 0, Final residual = 0, No Iterations 0
smoothSolver:  Solving for e, Initial residual = 4.45326e-07, Final residual = 4.45326e-07, No Iterations 0
smoothSolver:  Solving for omega, Initial residual = 3.96765e-07, Final residual = 3.96765e-07, No Iterations 0
smoothSolver:  Solving for k, Initial residual = 1.68853e-05, Final residual = 9.02869e-09, No Iterations 1
ExecutionTime = 9.4 s  ClockTime = 9 s

deltaT = 1.05863e-05
Mean and max Courant Numbers = 0.00331055 0.200364
Time = 0.000338021

diagonal:  Solving for rho, Initial residual = 0, Final residual = 0, No Iterations 0
diagonal:  Solving for rhoUx, Initial residual = 0, Final residual = 0, No Iterations 0
diagonal:  Solving for rhoUy, Initial residual = 0, Final residual = 0, No Iterations 0
diagonal:  Solving for rhoUz, Initial residual = 0, Final residual = 0, No Iterations 0
smoothSolver:  Solving for Ux, Initial residual = 1.63125e-05, Final residual = 1.9349e-09, No Iterations 1
smoothSolver:  Solving for Uy, Initial residual = 1.78736e-05, Final residual = 2.53242e-09, No Iterations 1
smoothSolver:  Solving for Uz, Initial residual = 5.57854e-07, Final residual = 5.57854e-07, No Iterations 0
diagonal:  Solving for rhoE, Initial residual = 0, Final residual = 0, No Iterations 0
smoothSolver:  Solving for e, Initial residual = 4.43403e-07, Final residual = 4.43403e-07, No Iterations 0
smoothSolver:  Solving for omega, Initial residual = 6.62282e-07, Final residual = 6.62282e-07, No Iterations 0
smoothSolver:  Solving for k, Initial residual = 1.70491e-05, Final residual = 9.1607e-09, No Iterations 1
ExecutionTime = 9.58 s  ClockTime = 9 s

deltaT = 1.05634e-05
Mean and max Courant Numbers = 0.00340178 0.256047
Time = 0.000348584

diagonal:  Solving for rho, Initial residual = 0, Final residual = 0, No Iterations 0
diagonal:  Solving for rhoUx, Initial residual = 0, Final residual = 0, No Iterations 0
diagonal:  Solving for rhoUy, Initial residual = 0, Final residual = 0, No Iterations 0
diagonal:  Solving for rhoUz, Initial residual = 0, Final residual = 0, No Iterations 0
smoothSolver:  Solving for Ux, Initial residual = 1.61021e-05, Final residual = 1.90516e-09, No Iterations 1
smoothSolver:  Solving for Uy, Initial residual = 1.76418e-05, Final residual = 2.49345e-09, No Iterations 1
smoothSolver:  Solving for Uz, Initial residual = 5.55574e-07, Final residual = 5.55574e-07, No Iterations 0
diagonal:  Solving for rhoE, Initial residual = 0, Final residual = 0, No Iterations 0
smoothSolver:  Solving for e, Initial residual = 4.90018e-07, Final residual = 4.90018e-07, No Iterations 0
smoothSolver:  Solving for omega, Initial residual = 3.16917e-07, Final residual = 3.16917e-07, No Iterations 0
smoothSolver:  Solving for k, Initial residual = 1.6891e-05, Final residual = 8.93536e-09, No Iterations 1
bounding k, min: -6.7838e-05 max: 133025 average: 347.74
ExecutionTime = 9.78 s  ClockTime = 9 s

deltaT = 8.24967e-06
Mean and max Courant Numbers = 0.00257484 0.156681
Time = 0.000356834

diagonal:  Solving for rho, Initial residual = 0, Final residual = 0, No Iterations 0
diagonal:  Solving for rhoUx, Initial residual = 0, Final residual = 0, No Iterations 0
diagonal:  Solving for rhoUy, Initial residual = 0, Final residual = 0, No Iterations 0
diagonal:  Solving for rhoUz, Initial residual = 0, Final residual = 0, No Iterations 0
smoothSolver:  Solving for Ux, Initial residual = 1.24627e-05, Final residual = 1.15155e-09, No Iterations 1
smoothSolver:  Solving for Uy, Initial residual = 1.36531e-05, Final residual = 1.50711e-09, No Iterations 1
smoothSolver:  Solving for Uz, Initial residual = 4.32918e-07, Final residual = 4.32918e-07, No Iterations 0
diagonal:  Solving for rhoE, Initial residual = 0, Final residual = 0, No Iterations 0
smoothSolver:  Solving for e, Initial residual = 3.81503e-07, Final residual = 3.81503e-07, No Iterations 0
smoothSolver:  Solving for omega, Initial residual = 3.08682e-07, Final residual = 3.08682e-07, No Iterations 0
smoothSolver:  Solving for k, Initial residual = 1.3225e-05, Final residual = 5.45123e-09, No Iterations 1
ExecutionTime = 10 s  ClockTime = 10 s

deltaT = 9.30316e-06
Mean and max Courant Numbers = 0.00291386 0.176906
Time = 0.000366137

diagonal:  Solving for rho, Initial residual = 0, Final residual = 0, No Iterations 0
diagonal:  Solving for rhoUx, Initial residual = 0, Final residual = 0, No Iterations 0
diagonal:  Solving for rhoUy, Initial residual = 0, Final residual = 0, No Iterations 0
diagonal:  Solving for rhoUz, Initial residual = 0, Final residual = 0, No Iterations 0
smoothSolver:  Solving for Ux, Initial residual = 1.39121e-05, Final residual = 1.44915e-09, No Iterations 1
smoothSolver:  Solving for Uy, Initial residual = 1.52413e-05, Final residual = 1.89694e-09, No Iterations 1
smoothSolver:  Solving for Uz, Initial residual = 4.86956e-07, Final residual = 4.86956e-07, No Iterations 0
diagonal:  Solving for rhoE, Initial residual = 0, Final residual = 0, No Iterations 0
smoothSolver:  Solving for e, Initial residual = 4.28338e-07, Final residual = 4.28338e-07, No Iterations 0
smoothSolver:  Solving for omega, Initial residual = 5.40776e-07, Final residual = 5.40776e-07, No Iterations 0
smoothSolver:  Solving for k, Initial residual = 1.50594e-05, Final residual = 7.0439e-09, No Iterations 1
ExecutionTime = 10.22 s  ClockTime = 10 s

deltaT = 1.03566e-05
Mean and max Courant Numbers = 0.00332303 0.1972
Time = 0.000376493

diagonal:  Solving for rho, Initial residual = 0, Final residual = 0, No Iterations 0
diagonal:  Solving for rhoUx, Initial residual = 0, Final residual = 0, No Iterations 0
diagonal:  Solving for rhoUy, Initial residual = 0, Final residual = 0, No Iterations 0
diagonal:  Solving for rhoUz, Initial residual = 0, Final residual = 0, No Iterations 0
smoothSolver:  Solving for Ux, Initial residual = 1.53171e-05, Final residual = 1.77542e-09, No Iterations 1
smoothSolver:  Solving for Uy, Initial residual = 1.6779e-05, Final residual = 2.32418e-09, No Iterations 1
smoothSolver:  Solving for Uz, Initial residual = 5.41134e-07, Final residual = 5.41134e-07, No Iterations 0
diagonal:  Solving for rhoE, Initial residual = 0, Final residual = 0, No Iterations 0
smoothSolver:  Solving for e, Initial residual = 4.73311e-07, Final residual = 4.73311e-07, No Iterations 0
smoothSolver:  Solving for omega, Initial residual = 3.13386e-07, Final residual = 3.13386e-07, No Iterations 0
smoothSolver:  Solving for k, Initial residual = 1.6662e-05, Final residual = 8.58005e-09, No Iterations 1
ExecutionTime = 10.45 s  ClockTime = 10 s

deltaT = 1.05054e-05
Mean and max Courant Numbers = 0.00328197 0.200318
Time = 0.000386999

diagonal:  Solving for rho, Initial residual = 0, Final residual = 0, No Iterations 0
diagonal:  Solving for rhoUx, Initial residual = 0, Final residual = 0, No Iterations 0
diagonal:  Solving for rhoUy, Initial residual = 0, Final residual = 0, No Iterations 0
diagonal:  Solving for rhoUz, Initial residual = 0, Final residual = 0, No Iterations 0
smoothSolver:  Solving for Ux, Initial residual = 1.53623e-05, Final residual = 1.80583e-09, No Iterations 1
smoothSolver:  Solving for Uy, Initial residual = 1.68254e-05, Final residual = 2.36391e-09, No Iterations 1
smoothSolver:  Solving for Uz, Initial residual = 5.47383e-07, Final residual = 5.47383e-07, No Iterations 0
diagonal:  Solving for rhoE, Initial residual = 0, Final residual = 0, No Iterations 0
smoothSolver:  Solving for e, Initial residual = 4.78475e-07, Final residual = 4.78475e-07, No Iterations 0
smoothSolver:  Solving for omega, Initial residual = 3.93079e-07, Final residual = 3.93079e-07, No Iterations 0
smoothSolver:  Solving for k, Initial residual = 1.69474e-05, Final residual = 8.8356e-09, No Iterations 1
ExecutionTime = 10.7 s  ClockTime = 10 s

deltaT = 1.04903e-05
Mean and max Courant Numbers = 0.00328618 0.200229
Time = 0.000397489

diagonal:  Solving for rho, Initial residual = 0, Final residual = 0, No Iterations 0
diagonal:  Solving for rhoUx, Initial residual = 0, Final residual = 0, No Iterations 0
diagonal:  Solving for rhoUy, Initial residual = 0, Final residual = 0, No Iterations 0
diagonal:  Solving for rhoUz, Initial residual = 0, Final residual = 0, No Iterations 0
smoothSolver:  Solving for Ux, Initial residual = 1.51708e-05, Final residual = 1.78033e-09, No Iterations 1
smoothSolver:  Solving for Uy, Initial residual = 1.66129e-05, Final residual = 2.33033e-09, No Iterations 1
smoothSolver:  Solving for Uz, Initial residual = 5.45054e-07, Final residual = 5.45054e-07, No Iterations 0
diagonal:  Solving for rhoE, Initial residual = 0, Final residual = 0, No Iterations 0
smoothSolver:  Solving for e, Initial residual = 4.75941e-07, Final residual = 4.75941e-07, No Iterations 0
smoothSolver:  Solving for omega, Initial residual = 7.41816e-07, Final residual = 7.41816e-07, No Iterations 0
smoothSolver:  Solving for k, Initial residual = 1.71574e-05, Final residual = 9.02202e-09, No Iterations 1
ExecutionTime = 10.95 s  ClockTime = 11 s

deltaT = 1.04753e-05
Mean and max Courant Numbers = 0.00342313 0.763729
Time = 0.000407964

diagonal:  Solving for rho, Initial residual = 0, Final residual = 0, No Iterations 0
diagonal:  Solving for rhoUx, Initial residual = 0, Final residual = 0, No Iterations 0
diagonal:  Solving for rhoUy, Initial residual = 0, Final residual = 0, No Iterations 0
diagonal:  Solving for rhoUz, Initial residual = 0, Final residual = 0, No Iterations 0
smoothSolver:  Solving for Ux, Initial residual = 1.49855e-05, Final residual = 1.75554e-09, No Iterations 1
smoothSolver:  Solving for Uy, Initial residual = 1.64067e-05, Final residual = 2.29763e-09, No Iterations 1
smoothSolver:  Solving for Uz, Initial residual = 5.43456e-07, Final residual = 5.43456e-07, No Iterations 0
diagonal:  Solving for rhoE, Initial residual = 0, Final residual = 0, No Iterations 0
smoothSolver:  Solving for e, Initial residual = 7.18669e-07, Final residual = 7.18669e-07, No Iterations 0
smoothSolver:  Solving for omega, Initial residual = 3.79444e-07, Final residual = 3.79444e-07, No Iterations 0
smoothSolver:  Solving for k, Initial residual = 1.70189e-05, Final residual = 8.82965e-09, No Iterations 1
ExecutionTime = 11.17 s  ClockTime = 11 s

deltaT = 2.74338e-06
Mean and max Courant Numbers = 0.000859314 0.0524249
Time = 0.000410708

diagonal:  Solving for rho, Initial residual = 0, Final residual = 0, No Iterations 0
diagonal:  Solving for rhoUx, Initial residual = 0, Final residual = 0, No Iterations 0
diagonal:  Solving for rhoUy, Initial residual = 0, Final residual = 0, No Iterations 0
diagonal:  Solving for rhoUz, Initial residual = 0, Final residual = 0, No Iterations 0
smoothSolver:  Solving for Ux, Initial residual = 3.90724e-06, Final residual = 1.19911e-10, No Iterations 1
smoothSolver:  Solving for Uy, Initial residual = 4.27776e-06, Final residual = 1.56931e-10, No Iterations 1
smoothSolver:  Solving for Uz, Initial residual = 1.42234e-07, Final residual = 1.42234e-07, No Iterations 0
diagonal:  Solving for rhoE, Initial residual = 0, Final residual = 0, No Iterations 0
smoothSolver:  Solving for e, Initial residual = 2.06711e-07, Final residual = 2.06711e-07, No Iterations 0
smoothSolver:  Solving for omega, Initial residual = 1.02984e-07, Final residual = 1.02984e-07, No Iterations 0
smoothSolver:  Solving for k, Initial residual = 4.45668e-06, Final residual = 6.03077e-10, No Iterations 1
ExecutionTime = 11.39 s  ClockTime = 11 s

deltaT = 3.29181e-06
Mean and max Courant Numbers = 0.0010344 0.0629156
Time = 0.000414

diagonal:  Solving for rho, Initial residual = 0, Final residual = 0, No Iterations 0
diagonal:  Solving for rhoUx, Initial residual = 0, Final residual = 0, No Iterations 0
diagonal:  Solving for rhoUy, Initial residual = 0, Final residual = 0, No Iterations 0
diagonal:  Solving for rhoUz, Initial residual = 0, Final residual = 0, No Iterations 0
smoothSolver:  Solving for Ux, Initial residual = 4.66475e-06, Final residual = 1.71739e-10, No Iterations 1
smoothSolver:  Solving for Uy, Initial residual = 5.1065e-06, Final residual = 2.24749e-10, No Iterations 1
smoothSolver:  Solving for Uz, Initial residual = 1.70511e-07, Final residual = 1.70511e-07, No Iterations 0
diagonal:  Solving for rhoE, Initial residual = 0, Final residual = 0, No Iterations 0
smoothSolver:  Solving for e, Initial residual = 2.43311e-07, Final residual = 2.43311e-07, No Iterations 0
smoothSolver:  Solving for omega, Initial residual = 2.88741e-07, Final residual = 2.88741e-07, No Iterations 0
smoothSolver:  Solving for k, Initial residual = 5.43894e-06, Final residual = 8.98186e-10, No Iterations 1
ExecutionTime = 11.65 s  ClockTime = 11 s

deltaT = 3.94963e-06
Mean and max Courant Numbers = 0.00132308 0.16804
Time = 0.000417949

diagonal:  Solving for rho, Initial residual = 0, Final residual = 0, No Iterations 0
diagonal:  Solving for rhoUx, Initial residual = 0, Final residual = 0, No Iterations 0
diagonal:  Solving for rhoUy, Initial residual = 0, Final residual = 0, No Iterations 0
diagonal:  Solving for rhoUz, Initial residual = 0, Final residual = 0, No Iterations 0
smoothSolver:  Solving for Ux, Initial residual = 5.56349e-06, Final residual = 2.45694e-10, No Iterations 1
smoothSolver:  Solving for Uy, Initial residual = 6.08974e-06, Final residual = 3.21512e-10, No Iterations 1
smoothSolver:  Solving for Uz, Initial residual = 2.04473e-07, Final residual = 2.04473e-07, No Iterations 0
diagonal:  Solving for rhoE, Initial residual = 0, Final residual = 0, No Iterations 0
smoothSolver:  Solving for e, Initial residual = 2.82773e-07, Final residual = 2.82773e-07, No Iterations 0
smoothSolver:  Solving for omega, Initial residual = 1.33112e-07, Final residual = 1.33112e-07, No Iterations 0
smoothSolver:  Solving for k, Initial residual = 6.42638e-06, Final residual = 1.25057e-09, No Iterations 1
ExecutionTime = 11.96 s  ClockTime = 12 s

deltaT = 4.42014e-06
Mean and max Courant Numbers = 0.00138841 0.0845197
Time = 0.000422369

diagonal:  Solving for rho, Initial residual = 0, Final residual = 0, No Iterations 0
diagonal:  Solving for rhoUx, Initial residual = 0, Final residual = 0, No Iterations 0
diagonal:  Solving for rhoUy, Initial residual = 0, Final residual = 0, No Iterations 0
diagonal:  Solving for rhoUz, Initial residual = 0, Final residual = 0, No Iterations 0
smoothSolver:  Solving for Ux, Initial residual = 6.18002e-06, Final residual = 3.05375e-10, No Iterations 1
smoothSolver:  Solving for Uy, Initial residual = 6.76513e-06, Final residual = 3.99661e-10, No Iterations 1
smoothSolver:  Solving for Uz, Initial residual = 2.28565e-07, Final residual = 2.28565e-07, No Iterations 0
diagonal:  Solving for rhoE, Initial residual = 0, Final residual = 0, No Iterations 0
smoothSolver:  Solving for e, Initial residual = 3.09417e-07, Final residual = 3.09417e-07, No Iterations 0
smoothSolver:  Solving for omega, Initial residual = 1.6488e-07, Final residual = 1.6488e-07, No Iterations 0
smoothSolver:  Solving for k, Initial residual = 7.19679e-06, Final residual = 1.5656e-09, No Iterations 1
bounding k, min: -1.29971e-05 max: 133347 average: 347.448
ExecutionTime = 12.22 s  ClockTime = 12 s

deltaT = 5.30481e-06
Mean and max Courant Numbers = 0.00167081 0.101465
Time = 0.000427674

diagonal:  Solving for rho, Initial residual = 0, Final residual = 0, No Iterations 0
diagonal:  Solving for rhoUx, Initial residual = 0, Final residual = 0, No Iterations 0
diagonal:  Solving for rhoUy, Initial residual = 0, Final residual = 0, No Iterations 0
diagonal:  Solving for rhoUz, Initial residual = 0, Final residual = 0, No Iterations 0
smoothSolver:  Solving for Ux, Initial residual = 7.35134e-06, Final residual = 4.35821e-10, No Iterations 1
smoothSolver:  Solving for Uy, Initial residual = 8.04824e-06, Final residual = 5.70488e-10, No Iterations 1
smoothSolver:  Solving for Uz, Initial residual = 2.73923e-07, Final residual = 2.73923e-07, No Iterations 0
diagonal:  Solving for rhoE, Initial residual = 0, Final residual = 0, No Iterations 0
smoothSolver:  Solving for e, Initial residual = 3.61647e-07, Final residual = 3.61647e-07, No Iterations 0
smoothSolver:  Solving for omega, Initial residual = 4.73713e-07, Final residual = 4.73713e-07, No Iterations 0
smoothSolver:  Solving for k, Initial residual = 8.79034e-06, Final residual = 2.33498e-09, No Iterations 1
ExecutionTime = 12.43 s  ClockTime = 12 s

deltaT = 6.3496e-06
Mean and max Courant Numbers = 0.00214093 0.431675
Time = 0.000434024

diagonal:  Solving for rho, Initial residual = 0, Final residual = 0, No Iterations 0
diagonal:  Solving for rhoUx, Initial residual = 0, Final residual = 0, No Iterations 0
diagonal:  Solving for rhoUy, Initial residual = 0, Final residual = 0, No Iterations 0
diagonal:  Solving for rhoUz, Initial residual = 0, Final residual = 0, No Iterations 0
smoothSolver:  Solving for Ux, Initial residual = 8.70757e-06, Final residual = 6.17651e-10, No Iterations 1
smoothSolver:  Solving for Uy, Initial residual = 9.53275e-06, Final residual = 8.08541e-10, No Iterations 1
smoothSolver:  Solving for Uz, Initial residual = 3.27597e-07, Final residual = 3.27597e-07, No Iterations 0
diagonal:  Solving for rhoE, Initial residual = 0, Final residual = 0, No Iterations 0
smoothSolver:  Solving for e, Initial residual = 4.26356e-07, Final residual = 4.26356e-07, No Iterations 0
smoothSolver:  Solving for omega, Initial residual = 2.34472e-07, Final residual = 2.34472e-07, No Iterations 0
smoothSolver:  Solving for k, Initial residual = 1.03735e-05, Final residual = 3.23944e-09, No Iterations 1
ExecutionTime = 12.73 s  ClockTime = 12 s

deltaT = 2.94203e-06
Mean and max Courant Numbers = 0.000927484 0.0563171
Time = 0.000436966

diagonal:  Solving for rho, Initial residual = 0, Final residual = 0, No Iterations 0
diagonal:  Solving for rhoUx, Initial residual = 0, Final residual = 0, No Iterations 0
diagonal:  Solving for rhoUy, Initial residual = 0, Final residual = 0, No Iterations 0
diagonal:  Solving for rhoUz, Initial residual = 0, Final residual = 0, No Iterations 0
smoothSolver:  Solving for Ux, Initial residual = 4.01065e-06, Final residual = 1.31817e-10, No Iterations 1
smoothSolver:  Solving for Uy, Initial residual = 4.3903e-06, Final residual = 1.72538e-10, No Iterations 1
smoothSolver:  Solving for Uz, Initial residual = 1.51666e-07, Final residual = 1.51666e-07, No Iterations 0
diagonal:  Solving for rhoE, Initial residual = 0, Final residual = 0, No Iterations 0
smoothSolver:  Solving for e, Initial residual = 1.86311e-07, Final residual = 1.86311e-07, No Iterations 0
smoothSolver:  Solving for omega, Initial residual = 1.09995e-07, Final residual = 1.09995e-07, No Iterations 0
smoothSolver:  Solving for k, Initial residual = 4.80697e-06, Final residual = 6.93922e-10, No Iterations 1
ExecutionTime = 13.08 s  ClockTime = 13 s

deltaT = 3.53043e-06
Mean and max Courant Numbers = 0.00111553 0.0675949
Time = 0.000440496

diagonal:  Solving for rho, Initial residual = 0, Final residual = 0, No Iterations 0
diagonal:  Solving for rhoUx, Initial residual = 0, Final residual = 0, No Iterations 0
diagonal:  Solving for rhoUy, Initial residual = 0, Final residual = 0, No Iterations 0
diagonal:  Solving for rhoUz, Initial residual = 0, Final residual = 0, No Iterations 0
smoothSolver:  Solving for Ux, Initial residual = 4.77879e-06, Final residual = 1.88428e-10, No Iterations 1
smoothSolver:  Solving for Uy, Initial residual = 5.23071e-06, Final residual = 2.46627e-10, No Iterations 1
smoothSolver:  Solving for Uz, Initial residual = 1.81826e-07, Final residual = 1.81826e-07, No Iterations 0
diagonal:  Solving for rhoE, Initial residual = 0, Final residual = 0, No Iterations 0
smoothSolver:  Solving for e, Initial residual = 2.16037e-07, Final residual = 2.16037e-07, No Iterations 0
smoothSolver:  Solving for omega, Initial residual = 3.50783e-07, Final residual = 3.50783e-07, No Iterations 0
smoothSolver:  Solving for k, Initial residual = 5.88419e-06, Final residual = 1.04003e-09, No Iterations 1
ExecutionTime = 13.44 s  ClockTime = 13 s

deltaT = 4.23611e-06
Mean and max Courant Numbers = 0.00145258 0.230896
Time = 0.000444732

diagonal:  Solving for rho, Initial residual = 0, Final residual = 0, No Iterations 0
diagonal:  Solving for rhoUx, Initial residual = 0, Final residual = 0, No Iterations 0
diagonal:  Solving for rhoUy, Initial residual = 0, Final residual = 0, No Iterations 0
diagonal:  Solving for rhoUz, Initial residual = 0, Final residual = 0, No Iterations 0
smoothSolver:  Solving for Ux, Initial residual = 5.68595e-06, Final residual = 2.68927e-10, No Iterations 1
smoothSolver:  Solving for Uy, Initial residual = 6.22294e-06, Final residual = 3.51962e-10, No Iterations 1
smoothSolver:  Solving for Uz, Initial residual = 2.18049e-07, Final residual = 2.18049e-07, No Iterations 0
diagonal:  Solving for rhoE, Initial residual = 0, Final residual = 0, No Iterations 0
smoothSolver:  Solving for e, Initial residual = 2.50544e-07, Final residual = 2.50544e-07, No Iterations 0
smoothSolver:  Solving for omega, Initial residual = 1.56422e-07, Final residual = 1.56422e-07, No Iterations 0
smoothSolver:  Solving for k, Initial residual = 6.936e-06, Final residual = 1.4408e-09, No Iterations 1
ExecutionTime = 13.7 s  ClockTime = 13 s

deltaT = 3.66909e-06
Mean and max Courant Numbers = 0.00116056 0.0702903
Time = 0.000448401

diagonal:  Solving for rho, Initial residual = 0, Final residual = 0, No Iterations 0
diagonal:  Solving for rhoUx, Initial residual = 0, Final residual = 0, No Iterations 0
diagonal:  Solving for rhoUy, Initial residual = 0, Final residual = 0, No Iterations 0
diagonal:  Solving for rhoUz, Initial residual = 0, Final residual = 0, No Iterations 0
smoothSolver:  Solving for Ux, Initial residual = 4.88649e-06, Final residual = 2.00139e-10, No Iterations 1
smoothSolver:  Solving for Uy, Initial residual = 5.34546e-06, Final residual = 2.61818e-10, No Iterations 1
smoothSolver:  Solving for Uz, Initial residual = 1.88685e-07, Final residual = 1.88685e-07, No Iterations 0
diagonal:  Solving for rhoE, Initial residual = 0, Final residual = 0, No Iterations 0
smoothSolver:  Solving for e, Initial residual = 2.10685e-07, Final residual = 2.10685e-07, No Iterations 0
smoothSolver:  Solving for omega, Initial residual = 1.37452e-07, Final residual = 1.37452e-07, No Iterations 0
smoothSolver:  Solving for k, Initial residual = 6.00934e-06, Final residual = 1.07958e-09, No Iterations 1
ExecutionTime = 13.96 s  ClockTime = 14 s

deltaT = 4.4029e-06
Mean and max Courant Numbers = 0.00139712 0.0843722
Time = 0.000452804

diagonal:  Solving for rho, Initial residual = 0, Final residual = 0, No Iterations 0
diagonal:  Solving for rhoUx, Initial residual = 0, Final residual = 0, No Iterations 0
diagonal:  Solving for rhoUy, Initial residual = 0, Final residual = 0, No Iterations 0
diagonal:  Solving for rhoUz, Initial residual = 0, Final residual = 0, No Iterations 0
smoothSolver:  Solving for Ux, Initial residual = 5.80893e-06, Final residual = 2.85413e-10, No Iterations 1
smoothSolver:  Solving for Uy, Initial residual = 6.35121e-06, Final residual = 3.73187e-10, No Iterations 1
smoothSolver:  Solving for Uz, Initial residual = 2.26163e-07, Final residual = 2.26163e-07, No Iterations 0
diagonal:  Solving for rhoE, Initial residual = 0, Final residual = 0, No Iterations 0
smoothSolver:  Solving for e, Initial residual = 2.45851e-07, Final residual = 2.45851e-07, No Iterations 0
smoothSolver:  Solving for omega, Initial residual = 4.64645e-07, Final residual = 4.64645e-07, No Iterations 0
smoothSolver:  Solving for k, Initial residual = 7.36729e-06, Final residual = 1.62246e-09, No Iterations 1
ExecutionTime = 14.2 s  ClockTime = 14 s

deltaT = 5.28412e-06
Mean and max Courant Numbers = 0.00183323 0.397475
Time = 0.000458088

diagonal:  Solving for rho, Initial residual = 0, Final residual = 0, No Iterations 0
diagonal:  Solving for rhoUx, Initial residual = 0, Final residual = 0, No Iterations 0
diagonal:  Solving for rhoUy, Initial residual = 0, Final residual = 0, No Iterations 0
diagonal:  Solving for rhoUz, Initial residual = 0, Final residual = 0, No Iterations 0
smoothSolver:  Solving for Ux, Initial residual = 6.89453e-06, Final residual = 4.06388e-10, No Iterations 1
smoothSolver:  Solving for Uy, Initial residual = 7.53329e-06, Final residual = 5.31044e-10, No Iterations 1
smoothSolver:  Solving for Uz, Initial residual = 2.71248e-07, Final residual = 2.71248e-07, No Iterations 0
diagonal:  Solving for rhoE, Initial residual = 0, Final residual = 0, No Iterations 0
smoothSolver:  Solving for e, Initial residual = 3.02824e-07, Final residual = 3.02824e-07, No Iterations 0
smoothSolver:  Solving for omega, Initial residual = 2.16964e-07, Final residual = 2.16964e-07, No Iterations 0
smoothSolver:  Solving for k, Initial residual = 8.68292e-06, Final residual = 2.24673e-09, No Iterations 1
ExecutionTime = 14.4 s  ClockTime = 14 s

deltaT = 2.65897e-06
Mean and max Courant Numbers = 0.000846363 0.0509924
Time = 0.000460747

diagonal:  Solving for rho, Initial residual = 0, Final residual = 0, No Iterations 0
diagonal:  Solving for rhoUx, Initial residual = 0, Final residual = 0, No Iterations 0
diagonal:  Solving for rhoUy, Initial residual = 0, Final residual = 0, No Iterations 0
diagonal:  Solving for rhoUz, Initial residual = 0, Final residual = 0, No Iterations 0
smoothSolver:  Solving for Ux, Initial residual = 3.44657e-06, Final residual = 1.02222e-10, No Iterations 1
smoothSolver:  Solving for Uy, Initial residual = 3.76404e-06, Final residual = 1.33506e-10, No Iterations 1
smoothSolver:  Solving for Uz, Initial residual = 1.364e-07, Final residual = 1.364e-07, No Iterations 0
diagonal:  Solving for rhoE, Initial residual = 0, Final residual = 0, No Iterations 0
[...]
smoothSolver:  Solving for Uy, Initial residual = 2.20721e-06, Final residual = 2.91496e-10, No Iterations 1
smoothSolver:  Solving for Uz, Initial residual = 4.26662e-07, Final residual = 4.26662e-07, No Iterations 0
diagonal:  Solving for rhoE, Initial residual = 0, Final residual = 0, No Iterations 0
smoothSolver:  Solving for e, Initial residual = 7.24607e-08, Final residual = 7.24607e-08, No Iterations 0
smoothSolver:  Solving for omega, Initial residual = 6.28404e-07, Final residual = 6.28404e-07, No Iterations 0
smoothSolver:  Solving for k, Initial residual = 1.84632e-05, Final residual = 8.87186e-09, No Iterations 1
ExecutionTime = 28.08 s  ClockTime = 28 s

deltaT = 1.01886e-05
Mean and max Courant Numbers = 0.00349955 0.20013
Time = 0.000919415

diagonal:  Solving for rho, Initial residual = 0, Final residual = 0, No Iterations 0
diagonal:  Solving for rhoUx, Initial residual = 0, Final residual = 0, No Iterations 0
diagonal:  Solving for rhoUy, Initial residual = 0, Final residual = 0, No Iterations 0
diagonal:  Solving for rhoUz, Initial residual = 0, Final residual = 0, No Iterations 0
smoothSolver:  Solving for Ux, Initial residual = 1.85139e-06, Final residual = 1.99223e-10, No Iterations 1
smoothSolver:  Solving for Uy, Initial residual = 2.17821e-06, Final residual = 2.87587e-10, No Iterations 1
smoothSolver:  Solving for Uz, Initial residual = 4.25038e-07, Final residual = 4.25038e-07, No Iterations 0
diagonal:  Solving for rhoE, Initial residual = 0, Final residual = 0, No Iterations 0
smoothSolver:  Solving for e, Initial residual = 7.23654e-08, Final residual = 7.23654e-08, No Iterations 0
smoothSolver:  Solving for omega, Initial residual = 6.31633e-07, Final residual = 6.31633e-07, No Iterations 0
smoothSolver:  Solving for k, Initial residual = 1.85013e-05, Final residual = 8.87927e-09, No Iterations 1
ExecutionTime = 28.31 s  ClockTime = 28 s

deltaT = 1.01812e-05
Mean and max Courant Numbers = 0.00349944 0.200068
Time = 0.000929597

diagonal:  Solving for rho, Initial residual = 0, Final residual = 0, No Iterations 0
diagonal:  Solving for rhoUx, Initial residual = 0, Final residual = 0, No Iterations 0
diagonal:  Solving for rhoUy, Initial residual = 0, Final residual = 0, No Iterations 0
diagonal:  Solving for rhoUz, Initial residual = 0, Final residual = 0, No Iterations 0
smoothSolver:  Solving for Ux, Initial residual = 1.82546e-06, Final residual = 1.96096e-10, No Iterations 1
smoothSolver:  Solving for Uy, Initial residual = 2.1491e-06, Final residual = 2.83453e-10, No Iterations 1
smoothSolver:  Solving for Uz, Initial residual = 4.23124e-07, Final residual = 4.23124e-07, No Iterations 0
diagonal:  Solving for rhoE, Initial residual = 0, Final residual = 0, No Iterations 0
smoothSolver:  Solving for e, Initial residual = 7.22318e-08, Final residual = 7.22318e-08, No Iterations 0
smoothSolver:  Solving for omega, Initial residual = 6.3464e-07, Final residual = 6.3464e-07, No Iterations 0
smoothSolver:  Solving for k, Initial residual = 1.8526e-05, Final residual = 8.87298e-09, No Iterations 1
ExecutionTime = 28.57 s  ClockTime = 28 s

deltaT = 1.01812e-05
Mean and max Courant Numbers = 0.00350198 0.200151
Time = 0.000939778

diagonal:  Solving for rho, Initial residual = 0, Final residual = 0, No Iterations 0
diagonal:  Solving for rhoUx, Initial residual = 0, Final residual = 0, No Iterations 0
diagonal:  Solving for rhoUy, Initial residual = 0, Final residual = 0, No Iterations 0
diagonal:  Solving for rhoUz, Initial residual = 0, Final residual = 0, No Iterations 0
smoothSolver:  Solving for Ux, Initial residual = 1.80167e-06, Final residual = 1.9336e-10, No Iterations 1
smoothSolver:  Solving for Uy, Initial residual = 2.1227e-06, Final residual = 2.79888e-10, No Iterations 1
smoothSolver:  Solving for Uz, Initial residual = 4.21535e-07, Final residual = 4.21535e-07, No Iterations 0
diagonal:  Solving for rhoE, Initial residual = 0, Final residual = 0, No Iterations 0
smoothSolver:  Solving for e, Initial residual = 7.20819e-08, Final residual = 7.20819e-08, No Iterations 0
smoothSolver:  Solving for omega, Initial residual = 6.37857e-07, Final residual = 6.37857e-07, No Iterations 0
smoothSolver:  Solving for k, Initial residual = 1.85652e-05, Final residual = 8.87899e-09, No Iterations 1
ExecutionTime = 28.82 s  ClockTime = 28 s

deltaT = 1.01738e-05
Mean and max Courant Numbers = 0.00350217 0.200091
Time = 0.000949952

diagonal:  Solving for rho, Initial residual = 0, Final residual = 0, No Iterations 0
diagonal:  Solving for rhoUx, Initial residual = 0, Final residual = 0, No Iterations 0
diagonal:  Solving for rhoUy, Initial residual = 0, Final residual = 0, No Iterations 0
diagonal:  Solving for rhoUz, Initial residual = 0, Final residual = 0, No Iterations 0
smoothSolver:  Solving for Ux, Initial residual = 1.77753e-06, Final residual = 1.90455e-10, No Iterations 1
smoothSolver:  Solving for Uy, Initial residual = 2.09571e-06, Final residual = 2.76055e-10, No Iterations 1
smoothSolver:  Solving for Uz, Initial residual = 4.19673e-07, Final residual = 4.19673e-07, No Iterations 0
diagonal:  Solving for rhoE, Initial residual = 0, Final residual = 0, No Iterations 0
smoothSolver:  Solving for e, Initial residual = 7.18717e-08, Final residual = 7.18717e-08, No Iterations 0
smoothSolver:  Solving for omega, Initial residual = 6.39839e-07, Final residual = 6.39839e-07, No Iterations 0
smoothSolver:  Solving for k, Initial residual = 1.85903e-05, Final residual = 8.87045e-09, No Iterations 1
ExecutionTime = 29.08 s  ClockTime = 29 s

deltaT = 1.01665e-05
Mean and max Courant Numbers = 0.00350243 0.200032
Time = 0.000960118

diagonal:  Solving for rho, Initial residual = 0, Final residual = 0, No Iterations 0
diagonal:  Solving for rhoUx, Initial residual = 0, Final residual = 0, No Iterations 0
diagonal:  Solving for rhoUy, Initial residual = 0, Final residual = 0, No Iterations 0
diagonal:  Solving for rhoUz, Initial residual = 0, Final residual = 0, No Iterations 0
smoothSolver:  Solving for Ux, Initial residual = 1.7543e-06, Final residual = 1.87689e-10, No Iterations 1
smoothSolver:  Solving for Uy, Initial residual = 2.06934e-06, Final residual = 2.7231e-10, No Iterations 1
smoothSolver:  Solving for Uz, Initial residual = 4.17832e-07, Final residual = 4.17832e-07, No Iterations 0
diagonal:  Solving for rhoE, Initial residual = 0, Final residual = 0, No Iterations 0
smoothSolver:  Solving for e, Initial residual = 7.16073e-08, Final residual = 7.16073e-08, No Iterations 0
smoothSolver:  Solving for omega, Initial residual = 6.41155e-07, Final residual = 6.41155e-07, No Iterations 0
smoothSolver:  Solving for k, Initial residual = 1.86151e-05, Final residual = 8.8619e-09, No Iterations 1
bounding k, min: -7.94881e-05 max: 136311 average: 344.751
ExecutionTime = 29.4 s  ClockTime = 29 s

deltaT = 1.01665e-05
Mean and max Courant Numbers = 0.00350522 0.20012
Time = 0.000970285

diagonal:  Solving for rho, Initial residual = 0, Final residual = 0, No Iterations 0
diagonal:  Solving for rhoUx, Initial residual = 0, Final residual = 0, No Iterations 0
diagonal:  Solving for rhoUy, Initial residual = 0, Final residual = 0, No Iterations 0
diagonal:  Solving for rhoUz, Initial residual = 0, Final residual = 0, No Iterations 0
smoothSolver:  Solving for Ux, Initial residual = 1.73298e-06, Final residual = 1.85274e-10, No Iterations 1
smoothSolver:  Solving for Uy, Initial residual = 2.04522e-06, Final residual = 2.69047e-10, No Iterations 1
smoothSolver:  Solving for Uz, Initial residual = 4.1631e-07, Final residual = 4.1631e-07, No Iterations 0
diagonal:  Solving for rhoE, Initial residual = 0, Final residual = 0, No Iterations 0
smoothSolver:  Solving for e, Initial residual = 7.13471e-08, Final residual = 7.13471e-08, No Iterations 0
smoothSolver:  Solving for omega, Initial residual = 6.42691e-07, Final residual = 6.42691e-07, No Iterations 0
smoothSolver:  Solving for k, Initial residual = 1.86532e-05, Final residual = 8.86685e-09, No Iterations 1
ExecutionTime = 29.68 s  ClockTime = 29 s

deltaT = 1.01591e-05
Mean and max Courant Numbers = 0.00350538 0.200065
Time = 0.000980444

diagonal:  Solving for rho, Initial residual = 0, Final residual = 0, No Iterations 0
diagonal:  Solving for rhoUx, Initial residual = 0, Final residual = 0, No Iterations 0
diagonal:  Solving for rhoUy, Initial residual = 0, Final residual = 0, No Iterations 0
diagonal:  Solving for rhoUz, Initial residual = 0, Final residual = 0, No Iterations 0
smoothSolver:  Solving for Ux, Initial residual = 1.71084e-06, Final residual = 1.82645e-10, No Iterations 1
smoothSolver:  Solving for Uy, Initial residual = 2.02043e-06, Final residual = 2.65497e-10, No Iterations 1
smoothSolver:  Solving for Uz, Initial residual = 4.145e-07, Final residual = 4.145e-07, No Iterations 0
diagonal:  Solving for rhoE, Initial residual = 0, Final residual = 0, No Iterations 0
smoothSolver:  Solving for e, Initial residual = 7.10776e-08, Final residual = 7.10776e-08, No Iterations 0
smoothSolver:  Solving for omega, Initial residual = 6.44798e-07, Final residual = 6.44798e-07, No Iterations 0
smoothSolver:  Solving for k, Initial residual = 1.86774e-05, Final residual = 8.86106e-09, No Iterations 1
ExecutionTime = 29.96 s  ClockTime = 30 s

deltaT = 1.01591e-05
Mean and max Courant Numbers = 0.00350815 0.200158
Time = 0.000990603

diagonal:  Solving for rho, Initial residual = 0, Final residual = 0, No Iterations 0
diagonal:  Solving for rhoUx, Initial residual = 0, Final residual = 0, No Iterations 0
diagonal:  Solving for rhoUy, Initial residual = 0, Final residual = 0, No Iterations 0
diagonal:  Solving for rhoUz, Initial residual = 0, Final residual = 0, No Iterations 0
smoothSolver:  Solving for Ux, Initial residual = 1.69057e-06, Final residual = 1.80364e-10, No Iterations 1
smoothSolver:  Solving for Uy, Initial residual = 1.99786e-06, Final residual = 2.62437e-10, No Iterations 1
smoothSolver:  Solving for Uz, Initial residual = 4.13006e-07, Final residual = 4.13006e-07, No Iterations 0
diagonal:  Solving for rhoE, Initial residual = 0, Final residual = 0, No Iterations 0
smoothSolver:  Solving for e, Initial residual = 7.08806e-08, Final residual = 7.08806e-08, No Iterations 0
smoothSolver:  Solving for omega, Initial residual = 6.47768e-07, Final residual = 6.47768e-07, No Iterations 0
smoothSolver:  Solving for k, Initial residual = 1.87151e-05, Final residual = 8.87183e-09, No Iterations 1
ExecutionTime = 30.28 s  ClockTime = 30 s

deltaT = 1.01517e-05
Mean and max Courant Numbers = 0.00350842 0.200109
Time = 0.00100075

diagonal:  Solving for rho, Initial residual = 0, Final residual = 0, No Iterations 0
diagonal:  Solving for rhoUx, Initial residual = 0, Final residual = 0, No Iterations 0
diagonal:  Solving for rhoUy, Initial residual = 0, Final residual = 0, No Iterations 0
diagonal:  Solving for rhoUz, Initial residual = 0, Final residual = 0, No Iterations 0
smoothSolver:  Solving for Ux, Initial residual = 1.6698e-06, Final residual = 1.77904e-10, No Iterations 1
smoothSolver:  Solving for Uy, Initial residual = 1.97454e-06, Final residual = 2.59102e-10, No Iterations 1
smoothSolver:  Solving for Uz, Initial residual = 4.11245e-07, Final residual = 4.11245e-07, No Iterations 0
diagonal:  Solving for rhoE, Initial residual = 0, Final residual = 0, No Iterations 0
smoothSolver:  Solving for e, Initial residual = 7.0667e-08, Final residual = 7.0667e-08, No Iterations 0
smoothSolver:  Solving for omega, Initial residual = 6.51015e-07, Final residual = 6.51015e-07, No Iterations 0
smoothSolver:  Solving for k, Initial residual = 1.87391e-05, Final residual = 8.87403e-09, No Iterations 1
ExecutionTime = 30.55 s  ClockTime = 30 s

deltaT = 1.01444e-05
Mean and max Courant Numbers = 0.00350856 0.200064
Time = 0.0010109

diagonal:  Solving for rho, Initial residual = 0, Final residual = 0, No Iterations 0
diagonal:  Solving for rhoUx, Initial residual = 0, Final residual = 0, No Iterations 0
diagonal:  Solving for rhoUy, Initial residual = 0, Final residual = 0, No Iterations 0
diagonal:  Solving for rhoUz, Initial residual = 0, Final residual = 0, No Iterations 0
smoothSolver:  Solving for Ux, Initial residual = 1.64985e-06, Final residual = 1.75527e-10, No Iterations 1
smoothSolver:  Solving for Uy, Initial residual = 1.95182e-06, Final residual = 2.55863e-10, No Iterations 1
smoothSolver:  Solving for Uz, Initial residual = 4.09507e-07, Final residual = 4.09507e-07, No Iterations 0
diagonal:  Solving for rhoE, Initial residual = 0, Final residual = 0, No Iterations 0
smoothSolver:  Solving for e, Initial residual = 7.05513e-08, Final residual = 7.05513e-08, No Iterations 0
smoothSolver:  Solving for omega, Initial residual = 6.54531e-07, Final residual = 6.54531e-07, No Iterations 0
smoothSolver:  Solving for k, Initial residual = 1.87629e-05, Final residual = 8.87824e-09, No Iterations 1
ExecutionTime = 30.81 s  ClockTime = 30 s

deltaT = 1.01444e-05
Mean and max Courant Numbers = 0.00351141 0.200098
Time = 0.00102104

diagonal:  Solving for rho, Initial residual = 0, Final residual = 0, No Iterations 0
diagonal:  Solving for rhoUx, Initial residual = 0, Final residual = 0, No Iterations 0
diagonal:  Solving for rhoUy, Initial residual = 0, Final residual = 0, No Iterations 0
diagonal:  Solving for rhoUz, Initial residual = 0, Final residual = 0, No Iterations 0
smoothSolver:  Solving for Ux, Initial residual = 1.6316e-06, Final residual = 1.73464e-10, No Iterations 1
smoothSolver:  Solving for Uy, Initial residual = 1.93107e-06, Final residual = 2.53079e-10, No Iterations 1
smoothSolver:  Solving for Uz, Initial residual = 4.08077e-07, Final residual = 4.08077e-07, No Iterations 0
diagonal:  Solving for rhoE, Initial residual = 0, Final residual = 0, No Iterations 0
smoothSolver:  Solving for e, Initial residual = 7.05287e-08, Final residual = 7.05287e-08, No Iterations 0
smoothSolver:  Solving for omega, Initial residual = 6.58781e-07, Final residual = 6.58781e-07, No Iterations 0
smoothSolver:  Solving for k, Initial residual = 1.88003e-05, Final residual = 8.89835e-09, No Iterations 1
ExecutionTime = 31.1 s  ClockTime = 31 s

deltaT = 1.0137e-05
Mean and max Courant Numbers = 0.00351221 0.199947
Time = 0.00103118

diagonal:  Solving for rho, Initial residual = 0, Final residual = 0, No Iterations 0
diagonal:  Solving for rhoUx, Initial residual = 0, Final residual = 0, No Iterations 0
diagonal:  Solving for rhoUy, Initial residual = 0, Final residual = 0, No Iterations 0
diagonal:  Solving for rhoUz, Initial residual = 0, Final residual = 0, No Iterations 0
smoothSolver:  Solving for Ux, Initial residual = 1.61259e-06, Final residual = 1.71203e-10, No Iterations 1
smoothSolver:  Solving for Uy, Initial residual = 1.90955e-06, Final residual = 2.50018e-10, No Iterations 1
smoothSolver:  Solving for Uz, Initial residual = 4.06378e-07, Final residual = 4.06378e-07, No Iterations 0
diagonal:  Solving for rhoE, Initial residual = 0, Final residual = 0, No Iterations 0
smoothSolver:  Solving for e, Initial residual = 7.04681e-08, Final residual = 7.04681e-08, No Iterations 0
smoothSolver:  Solving for omega, Initial residual = 6.62401e-07, Final residual = 6.62401e-07, No Iterations 0
smoothSolver:  Solving for k, Initial residual = 1.88237e-05, Final residual = 8.9042e-09, No Iterations 1
ExecutionTime = 31.43 s  ClockTime = 31 s

deltaT = 1.0137e-05
Mean and max Courant Numbers = 0.00351583 0.199922
Time = 0.00104132

diagonal:  Solving for rho, Initial residual = 0, Final residual = 0, No Iterations 0
diagonal:  Solving for rhoUx, Initial residual = 0, Final residual = 0, No Iterations 0
diagonal:  Solving for rhoUy, Initial residual = 0, Final residual = 0, No Iterations 0
diagonal:  Solving for rhoUz, Initial residual = 0, Final residual = 0, No Iterations 0
smoothSolver:  Solving for Ux, Initial residual = 1.59535e-06, Final residual = 1.69256e-10, No Iterations 1
smoothSolver:  Solving for Uy, Initial residual = 1.89e-06, Final residual = 2.47408e-10, No Iterations 1
smoothSolver:  Solving for Uz, Initial residual = 4.04993e-07, Final residual = 4.04993e-07, No Iterations 0
diagonal:  Solving for rhoE, Initial residual = 0, Final residual = 0, No Iterations 0
smoothSolver:  Solving for e, Initial residual = 7.05289e-08, Final residual = 7.05289e-08, No Iterations 0
smoothSolver:  Solving for omega, Initial residual = 6.65984e-07, Final residual = 6.65984e-07, No Iterations 0
smoothSolver:  Solving for k, Initial residual = 1.88605e-05, Final residual = 8.92239e-09, No Iterations 1
ExecutionTime = 31.76 s  ClockTime = 31 s

deltaT = 1.01444e-05
Mean and max Courant Numbers = 0.00352264 0.200038
Time = 0.00105146

diagonal:  Solving for rho, Initial residual = 0, Final residual = 0, No Iterations 0
diagonal:  Solving for rhoUx, Initial residual = 0, Final residual = 0, No Iterations 0
diagonal:  Solving for rhoUy, Initial residual = 0, Final residual = 0, No Iterations 0
diagonal:  Solving for rhoUz, Initial residual = 0, Final residual = 0, No Iterations 0
smoothSolver:  Solving for Ux, Initial residual = 1.57978e-06, Final residual = 1.67612e-10, No Iterations 1
smoothSolver:  Solving for Uy, Initial residual = 1.87251e-06, Final residual = 2.45238e-10, No Iterations 1
smoothSolver:  Solving for Uz, Initial residual = 4.03915e-07, Final residual = 4.03915e-07, No Iterations 0
diagonal:  Solving for rhoE, Initial residual = 0, Final residual = 0, No Iterations 0
smoothSolver:  Solving for e, Initial residual = 7.06191e-08, Final residual = 7.06191e-08, No Iterations 0
smoothSolver:  Solving for omega, Initial residual = 6.70232e-07, Final residual = 6.70232e-07, No Iterations 0
smoothSolver:  Solving for k, Initial residual = 1.89108e-05, Final residual = 8.9493e-09, No Iterations 1
ExecutionTime = 32.05 s  ClockTime = 32 s

deltaT = 1.01444e-05
Mean and max Courant Numbers = 0.00352692 0.200004
Time = 0.00106161

diagonal:  Solving for rho, Initial residual = 0, Final residual = 0, No Iterations 0
diagonal:  Solving for rhoUx, Initial residual = 0, Final residual = 0, No Iterations 0
diagonal:  Solving for rhoUy, Initial residual = 0, Final residual = 0, No Iterations 0
diagonal:  Solving for rhoUz, Initial residual = 0, Final residual = 0, No Iterations 0
smoothSolver:  Solving for Ux, Initial residual = 1.56359e-06, Final residual = 1.65778e-10, No Iterations 1
smoothSolver:  Solving for Uy, Initial residual = 1.85417e-06, Final residual = 2.42786e-10, No Iterations 1
smoothSolver:  Solving for Uz, Initial residual = 4.0255e-07, Final residual = 4.0255e-07, No Iterations 0
diagonal:  Solving for rhoE, Initial residual = 0, Final residual = 0, No Iterations 0
smoothSolver:  Solving for e, Initial residual = 7.06778e-08, Final residual = 7.06778e-08, No Iterations 0
smoothSolver:  Solving for omega, Initial residual = 6.73359e-07, Final residual = 6.73359e-07, No Iterations 0
smoothSolver:  Solving for k, Initial residual = 1.89472e-05, Final residual = 8.96281e-09, No Iterations 1
ExecutionTime = 32.37 s  ClockTime = 32 s

deltaT = 1.01444e-05
Mean and max Courant Numbers = 0.00353111 0.199968
Time = 0.00107175

diagonal:  Solving for rho, Initial residual = 0, Final residual = 0, No Iterations 0
diagonal:  Solving for rhoUx, Initial residual = 0, Final residual = 0, No Iterations 0
diagonal:  Solving for rhoUy, Initial residual = 0, Final residual = 0, No Iterations 0
diagonal:  Solving for rhoUz, Initial residual = 0, Final residual = 0, No Iterations 0
smoothSolver:  Solving for Ux, Initial residual = 1.54789e-06, Final residual = 1.63998e-10, No Iterations 1
smoothSolver:  Solving for Uy, Initial residual = 1.83634e-06, Final residual = 2.40402e-10, No Iterations 1
smoothSolver:  Solving for Uz, Initial residual = 4.01194e-07, Final residual = 4.01194e-07, No Iterations 0
diagonal:  Solving for rhoE, Initial residual = 0, Final residual = 0, No Iterations 0
