/*---------------------------------------------------------------------------*\
| =========                 |                                                 |
| \\      /  F ield         | OpenFOAM: The Open Source CFD Toolbox           |
|  \\    /   O peration     | Version:  2412                                  |
|   \\  /    A nd           | Website:  www.openfoam.com                      |
|    \\/     M anipulation  |                                                 |
\*---------------------------------------------------------------------------*/
Build  : _e5c6ccc3-20250814 OPENFOAM=2412 patch=250814 version=2412
Arch   : "LSB;label=32;scalar=64"
Exec   : simpleFoam -parallel
Date   : Jan 03 2026
Time   : 14:54:50
Host   : LAPTOP-FVD4ED85
PID    : 10866
I/O    : uncollated
Case   : /home/ericy/Rocket_CFD_ML/openfoam/combined_test_workflow
nProcs : 4
Hosts  :
(
    (LAPTOP-FVD4ED85 4)
)
Pstream initialized with:
    floatTransfer      : false
    maxCommsSize       : 0
    nProcsSimpleSum    : 0
    nonBlockingExchange: 0 (tuning: 0)
    exchange algorithm : 0
    commsType          : nonBlocking
    polling iterations : 0
trapFpe: Floating point exception trapping enabled (FOAM_SIGFPE).
fileModificationChecking : Monitoring run-time modified files using timeStampMaster (fileModificationSkew 5, maxFileModificationPolls 20)
allowSystemOperations : Allowing user-supplied system call operations

// * * * * * * * * * * * * * * * * * * * * * * * * * * * * * * * * * * * * * //
Create time

Create mesh for time = 0


SIMPLE: convergence criteria
    field p	 tolerance 0.0001
    field U	 tolerance 0.0001

Reading field p

Reading field U

Reading/calculating face flux field phi

Selecting incompressible transport model Newtonian
Selecting turbulence model type RAS
Selecting RAS turbulence model kOmegaSST
Selecting patchDistMethod meshWave
RAS
{
    model           kOmegaSST;
    turbulence      on;
    printCoeffs     on;
    alphaK1         0.85;
    alphaK2         1;
    alphaOmega1     0.5;
    alphaOmega2     0.856;
    gamma1          0.555556;
    gamma2          0.44;
    beta1           0.075;
    beta2           0.0828;
    betaStar        0.09;
    a1              0.31;
    b1              1;
    c1              10;
    F3              false;
    decayControl    false;
    kInf            0;
    omegaInf        0;
}

No MRF models present

No finite volume options present

Starting time loop

forceCoeffs forces:
    p: p
    U: U
    rho: rhoInf
    Freestream density (rhoInf) set to 1.225
    Not including porosity effects
    magUInf: 500
    lRef   : 3
    Aref   : 0.1
    rhoInf : 1.225
    Selecting all coefficients
    - Drag force: Cd
    - Drag force front: Cd(f)
    - Drag force rear: Cd(r)
    - Lift force: Cl
    - Lift force front: Cl(f)
    - Lift force rear: Cl(r)
    - Pitch moment: CmPitch
    - Roll moment: CmRoll
    - Yaw moment: CmYaw
    - Side force: Cs
    - Side force front: Cs(f)
    - Side force rear: Cs(r)


Time = 1

smoothSolver:  Solving for Ux, Initial residual = 0.328613, Final residual = 0.0162569, No Iterations 2
smoothSolver:  Solving for Uy, Initial residual = 0.328612, Final residual = 0.0162571, No Iterations 2
smoothSolver:  Solving for Uz, Initial residual = 0.190904, Final residual = 0.0181974, No Iterations 2
GAMG:  Solving for p, Initial residual = 1, Final residual = 0.00352767, No Iterations 4
time step continuity errors : sum local = 0.0232762, global = 0.000144027, cumulative = 0.000144027
smoothSolver:  Solving for omega, Initial residual = 0.0117446, Final residual = 0.000498352, No Iterations 3
smoothSolver:  Solving for k, Initial residual = 1, Final residual = 0.0965984, No Iterations 2
ExecutionTime = 0.86 s  ClockTime = 1 s

Time = 2

smoothSolver:  Solving for Ux, Initial residual = 0.251973, Final residual = 0.0096953, No Iterations 2
smoothSolver:  Solving for Uy, Initial residual = 0.251971, Final residual = 0.00969453, No Iterations 2
smoothSolver:  Solving for Uz, Initial residual = 0.152331, Final residual = 0.0136379, No Iterations 2
GAMG:  Solving for p, Initial residual = 0.0303812, Final residual = 0.000255757, No Iterations 3
time step continuity errors : sum local = 0.0804742, global = -0.00422523, cumulative = -0.00408121
smoothSolver:  Solving for omega, Initial residual = 0.00863322, Final residual = 0.00039739, No Iterations 3
smoothSolver:  Solving for k, Initial residual = 0.382659, Final residual = 0.0347986, No Iterations 2
ExecutionTime = 1.21 s  ClockTime = 1 s

Time = 3

smoothSolver:  Solving for Ux, Initial residual = 0.207469, Final residual = 0.00714751, No Iterations 2
smoothSolver:  Solving for Uy, Initial residual = 0.207504, Final residual = 0.00714187, No Iterations 2
smoothSolver:  Solving for Uz, Initial residual = 0.135945, Final residual = 0.0112253, No Iterations 2
GAMG:  Solving for p, Initial residual = 0.0329283, Final residual = 0.000209809, No Iterations 3
time step continuity errors : sum local = 0.0808325, global = -0.00572978, cumulative = -0.00981099
smoothSolver:  Solving for omega, Initial residual = 0.00745212, Final residual = 0.000354075, No Iterations 3
smoothSolver:  Solving for k, Initial residual = 0.250061, Final residual = 0.0218209, No Iterations 2
ExecutionTime = 1.59 s  ClockTime = 2 s

Time = 4

smoothSolver:  Solving for Ux, Initial residual = 0.181415, Final residual = 0.00524977, No Iterations 2
smoothSolver:  Solving for Uy, Initial residual = 0.181474, Final residual = 0.00524913, No Iterations 2
smoothSolver:  Solving for Uz, Initial residual = 0.115358, Final residual = 0.00933012, No Iterations 2
GAMG:  Solving for p, Initial residual = 0.0382296, Final residual = 0.000156632, No Iterations 3
time step continuity errors : sum local = 0.0624502, global = -0.00559906, cumulative = -0.0154101
smoothSolver:  Solving for omega, Initial residual = 0.00667195, Final residual = 0.000312806, No Iterations 3
smoothSolver:  Solving for k, Initial residual = 0.190567, Final residual = 0.0156433, No Iterations 2
ExecutionTime = 1.93 s  ClockTime = 2 s

Time = 5

smoothSolver:  Solving for Ux, Initial residual = 0.15658, Final residual = 0.00390446, No Iterations 2
smoothSolver:  Solving for Uy, Initial residual = 0.156633, Final residual = 0.00390349, No Iterations 2
smoothSolver:  Solving for Uz, Initial residual = 0.100242, Final residual = 0.00772827, No Iterations 2
GAMG:  Solving for p, Initial residual = 0.0509436, Final residual = 0.000181733, No Iterations 3
time step continuity errors : sum local = 0.0626605, global = 0.0167394, cumulative = 0.00132936
smoothSolver:  Solving for omega, Initial residual = 0.00582632, Final residual = 0.00027647, No Iterations 3
smoothSolver:  Solving for k, Initial residual = 0.15242, Final residual = 0.0119192, No Iterations 2
ExecutionTime = 2.27 s  ClockTime = 2 s

Time = 6

smoothSolver:  Solving for Ux, Initial residual = 0.132044, Final residual = 0.0129516, No Iterations 1
smoothSolver:  Solving for Uy, Initial residual = 0.132054, Final residual = 0.0129528, No Iterations 1
smoothSolver:  Solving for Uz, Initial residual = 0.0863168, Final residual = 0.00639319, No Iterations 2
GAMG:  Solving for p, Initial residual = 0.0697913, Final residual = 0.000285089, No Iterations 3
time step continuity errors : sum local = 0.0795391, global = 0.0286802, cumulative = 0.0300095
smoothSolver:  Solving for omega, Initial residual = 0.00511143, Final residual = 0.000240231, No Iterations 3
smoothSolver:  Solving for k, Initial residual = 0.128141, Final residual = 0.00925466, No Iterations 2
ExecutionTime = 2.58 s  ClockTime = 3 s

Time = 7

smoothSolver:  Solving for Ux, Initial residual = 0.117401, Final residual = 0.0112619, No Iterations 1
smoothSolver:  Solving for Uy, Initial residual = 0.117346, Final residual = 0.0112562, No Iterations 1
smoothSolver:  Solving for Uz, Initial residual = 0.0759413, Final residual = 0.00529951, No Iterations 2
GAMG:  Solving for p, Initial residual = 0.0958186, Final residual = 0.000438197, No Iterations 3
time step continuity errors : sum local = 0.0960811, global = 0.0309066, cumulative = 0.0609162
smoothSolver:  Solving for omega, Initial residual = 0.00450456, Final residual = 0.000205547, No Iterations 3
smoothSolver:  Solving for k, Initial residual = 0.112031, Final residual = 0.00735961, No Iterations 2
ExecutionTime = 2.9 s  ClockTime = 3 s

Time = 8

smoothSolver:  Solving for Ux, Initial residual = 0.104993, Final residual = 0.00994843, No Iterations 1
smoothSolver:  Solving for Uy, Initial residual = 0.104865, Final residual = 0.00993624, No Iterations 1
smoothSolver:  Solving for Uz, Initial residual = 0.0682663, Final residual = 0.00443022, No Iterations 2
GAMG:  Solving for p, Initial residual = 0.134123, Final residual = 0.000655362, No Iterations 3
time step continuity errors : sum local = 0.108357, global = 0.0291938, cumulative = 0.09011
smoothSolver:  Solving for omega, Initial residual = 0.00416947, Final residual = 0.000179252, No Iterations 3
smoothSolver:  Solving for k, Initial residual = 0.105343, Final residual = 0.00615008, No Iterations 2
ExecutionTime = 3.21 s  ClockTime = 3 s

Time = 9

smoothSolver:  Solving for Ux, Initial residual = 0.0967012, Final residual = 0.00890244, No Iterations 1
smoothSolver:  Solving for Uy, Initial residual = 0.0965154, Final residual = 0.00888418, No Iterations 1
smoothSolver:  Solving for Uz, Initial residual = 0.0622718, Final residual = 0.00376283, No Iterations 2
GAMG:  Solving for p, Initial residual = 0.18756, Final residual = 0.000914398, No Iterations 3
time step continuity errors : sum local = 0.112801, global = 0.026646, cumulative = 0.116756
smoothSolver:  Solving for omega, Initial residual = 0.00387993, Final residual = 0.000384337, No Iterations 2
smoothSolver:  Solving for k, Initial residual = 0.102829, Final residual = 0.00536653, No Iterations 2
ExecutionTime = 3.52 s  ClockTime = 4 s

Time = 10

smoothSolver:  Solving for Ux, Initial residual = 0.0903116, Final residual = 0.00807816, No Iterations 1
smoothSolver:  Solving for Uy, Initial residual = 0.0901025, Final residual = 0.00805497, No Iterations 1
smoothSolver:  Solving for Uz, Initial residual = 0.0577004, Final residual = 0.00325401, No Iterations 2
GAMG:  Solving for p, Initial residual = 0.246589, Final residual = 0.00112824, No Iterations 3
time step continuity errors : sum local = 0.1094, global = 0.0248207, cumulative = 0.141577
smoothSolver:  Solving for omega, Initial residual = 0.00367523, Final residual = 0.000341919, No Iterations 2
smoothSolver:  Solving for k, Initial residual = 0.101164, Final residual = 0.00468706, No Iterations 2
ExecutionTime = 3.86 s  ClockTime = 4 s

Time = 11

smoothSolver:  Solving for Ux, Initial residual = 0.0849284, Final residual = 0.00742479, No Iterations 1
smoothSolver:  Solving for Uy, Initial residual = 0.0847542, Final residual = 0.0074034, No Iterations 1
smoothSolver:  Solving for Uz, Initial residual = 0.0539586, Final residual = 0.00286158, No Iterations 2
GAMG:  Solving for p, Initial residual = 0.277049, Final residual = 0.00115407, No Iterations 3
time step continuity errors : sum local = 0.102272, global = 0.0280262, cumulative = 0.169603
smoothSolver:  Solving for omega, Initial residual = 0.00348168, Final residual = 0.000309073, No Iterations 2
smoothSolver:  Solving for k, Initial residual = 0.100282, Final residual = 0.00418106, No Iterations 2
ExecutionTime = 4.17 s  ClockTime = 4 s

Time = 12

smoothSolver:  Solving for Ux, Initial residual = 0.080208, Final residual = 0.00687666, No Iterations 1
smoothSolver:  Solving for Uy, Initial residual = 0.0800944, Final residual = 0.00685988, No Iterations 1
smoothSolver:  Solving for Uz, Initial residual = 0.0508922, Final residual = 0.00255238, No Iterations 2
GAMG:  Solving for p, Initial residual = 0.232582, Final residual = 0.000902904, No Iterations 3
time step continuity errors : sum local = 0.0972831, global = 0.0347392, cumulative = 0.204342
smoothSolver:  Solving for omega, Initial residual = 0.00327429, Final residual = 0.000276846, No Iterations 2
smoothSolver:  Solving for k, Initial residual = 0.0996872, Final residual = 0.00371441, No Iterations 2
ExecutionTime = 4.47 s  ClockTime = 5 s

Time = 13

smoothSolver:  Solving for Ux, Initial residual = 0.0764135, Final residual = 0.00641118, No Iterations 1
smoothSolver:  Solving for Uy, Initial residual = 0.076368, Final residual = 0.00640419, No Iterations 1
smoothSolver:  Solving for Uz, Initial residual = 0.048398, Final residual = 0.00229712, No Iterations 2
GAMG:  Solving for p, Initial residual = 0.209275, Final residual = 0.000819329, No Iterations 3
time step continuity errors : sum local = 0.0996998, global = 0.0371909, cumulative = 0.241533
smoothSolver:  Solving for omega, Initial residual = 0.00312692, Final residual = 0.000253897, No Iterations 2
smoothSolver:  Solving for k, Initial residual = 0.100589, Final residual = 0.00347193, No Iterations 2
ExecutionTime = 4.81 s  ClockTime = 5 s

Time = 14

smoothSolver:  Solving for Ux, Initial residual = 0.0728111, Final residual = 0.00602029, No Iterations 1
smoothSolver:  Solving for Uy, Initial residual = 0.0728237, Final residual = 0.00602201, No Iterations 1
smoothSolver:  Solving for Uz, Initial residual = 0.0461581, Final residual = 0.00208259, No Iterations 2
GAMG:  Solving for p, Initial residual = 0.198863, Final residual = 0.000845473, No Iterations 3
time step continuity errors : sum local = 0.109383, global = 0.0330452, cumulative = 0.274578
smoothSolver:  Solving for omega, Initial residual = 0.00299771, Final residual = 0.000239519, No Iterations 2
smoothSolver:  Solving for k, Initial residual = 0.10156, Final residual = 0.00337095, No Iterations 2
ExecutionTime = 5.12 s  ClockTime = 5 s

Time = 15

smoothSolver:  Solving for Ux, Initial residual = 0.0696992, Final residual = 0.00568824, No Iterations 1
smoothSolver:  Solving for Uy, Initial residual = 0.0697812, Final residual = 0.00569953, No Iterations 1
smoothSolver:  Solving for Uz, Initial residual = 0.0441374, Final residual = 0.00189472, No Iterations 2
GAMG:  Solving for p, Initial residual = 0.194537, Final residual = 0.00089463, No Iterations 3
time step continuity errors : sum local = 0.118911, global = 0.0262463, cumulative = 0.300824
smoothSolver:  Solving for omega, Initial residual = 0.00285364, Final residual = 0.000224466, No Iterations 2
smoothSolver:  Solving for k, Initial residual = 0.102494, Final residual = 0.00345295, No Iterations 2
ExecutionTime = 5.42 s  ClockTime = 6 s

Time = 16

smoothSolver:  Solving for Ux, Initial residual = 0.0667919, Final residual = 0.00535882, No Iterations 1
smoothSolver:  Solving for Uy, Initial residual = 0.0669226, Final residual = 0.00537454, No Iterations 1
smoothSolver:  Solving for Uz, Initial residual = 0.0423042, Final residual = 0.00173476, No Iterations 2
GAMG:  Solving for p, Initial residual = 0.193319, Final residual = 0.000901678, No Iterations 3
time step continuity errors : sum local = 0.120443, global = 0.0181772, cumulative = 0.319002
smoothSolver:  Solving for omega, Initial residual = 0.00275036, Final residual = 0.000216964, No Iterations 2
smoothSolver:  Solving for k, Initial residual = 0.103236, Final residual = 0.00369816, No Iterations 2
ExecutionTime = 5.71 s  ClockTime = 6 s

Time = 17

smoothSolver:  Solving for Ux, Initial residual = 0.0641271, Final residual = 0.0050361, No Iterations 1
smoothSolver:  Solving for Uy, Initial residual = 0.0642893, Final residual = 0.00505425, No Iterations 1
smoothSolver:  Solving for Uz, Initial residual = 0.0405327, Final residual = 0.00160449, No Iterations 2
GAMG:  Solving for p, Initial residual = 0.194375, Final residual = 0.00085453, No Iterations 3
time step continuity errors : sum local = 0.112812, global = 0.00826945, cumulative = 0.327271
smoothSolver:  Solving for omega, Initial residual = 0.0026654, Final residual = 0.000214323, No Iterations 2
smoothSolver:  Solving for k, Initial residual = 0.103298, Final residual = 0.00409062, No Iterations 2
ExecutionTime = 6.01 s  ClockTime = 6 s

Time = 18

smoothSolver:  Solving for Ux, Initial residual = 0.0619844, Final residual = 0.00477569, No Iterations 1
smoothSolver:  Solving for Uy, Initial residual = 0.0621521, Final residual = 0.00479502, No Iterations 1
smoothSolver:  Solving for Uz, Initial residual = 0.0388453, Final residual = 0.00150003, No Iterations 2
GAMG:  Solving for p, Initial residual = 0.196844, Final residual = 0.000779541, No Iterations 3
time step continuity errors : sum local = 0.100384, global = -0.00179794, cumulative = 0.325473
smoothSolver:  Solving for omega, Initial residual = 0.00260852, Final residual = 0.000214244, No Iterations 2
smoothSolver:  Solving for k, Initial residual = 0.103173, Final residual = 0.00455847, No Iterations 2
ExecutionTime = 6.3 s  ClockTime = 7 s

Time = 19

smoothSolver:  Solving for Ux, Initial residual = 0.0601512, Final residual = 0.00458471, No Iterations 1
smoothSolver:  Solving for Uy, Initial residual = 0.0603181, Final residual = 0.00460375, No Iterations 1
smoothSolver:  Solving for Uz, Initial residual = 0.0371089, Final residual = 0.0014151, No Iterations 2
GAMG:  Solving for p, Initial residual = 0.199267, Final residual = 0.000693549, No Iterations 3
time step continuity errors : sum local = 0.0868626, global = -0.00912435, cumulative = 0.316349
smoothSolver:  Solving for omega, Initial residual = 0.00256439, Final residual = 0.000220844, No Iterations 2
smoothSolver:  Solving for k, Initial residual = 0.103704, Final residual = 0.00512058, No Iterations 2
ExecutionTime = 6.61 s  ClockTime = 7 s

Time = 20

smoothSolver:  Solving for Ux, Initial residual = 0.0587246, Final residual = 0.00445978, No Iterations 1
smoothSolver:  Solving for Uy, Initial residual = 0.058884, Final residual = 0.00447985, No Iterations 1
smoothSolver:  Solving for Uz, Initial residual = 0.0353496, Final residual = 0.0013476, No Iterations 2
GAMG:  Solving for p, Initial residual = 0.200063, Final residual = 0.000652521, No Iterations 3
time step continuity errors : sum local = 0.0798342, global = -0.0139941, cumulative = 0.302355
smoothSolver:  Solving for omega, Initial residual = 0.00257647, Final residual = 0.00023147, No Iterations 2
smoothSolver:  Solving for k, Initial residual = 0.104907, Final residual = 0.00573014, No Iterations 2
ExecutionTime = 6.9 s  ClockTime = 7 s

Time = 21

smoothSolver:  Solving for Ux, Initial residual = 0.0577669, Final residual = 0.00439218, No Iterations 1
smoothSolver:  Solving for Uy, Initial residual = 0.0579146, Final residual = 0.00441125, No Iterations 1
smoothSolver:  Solving for Uz, Initial residual = 0.0334863, Final residual = 0.00129394, No Iterations 2
GAMG:  Solving for p, Initial residual = 0.199, Final residual = 0.000642821, No Iterations 3
time step continuity errors : sum local = 0.0771829, global = -0.0176801, cumulative = 0.284675
smoothSolver:  Solving for omega, Initial residual = 0.00258344, Final residual = 0.000240049, No Iterations 2
smoothSolver:  Solving for k, Initial residual = 0.106551, Final residual = 0.00645687, No Iterations 2
ExecutionTime = 7.19 s  ClockTime = 7 s

Time = 22

smoothSolver:  Solving for Ux, Initial residual = 0.0568448, Final residual = 0.00438683, No Iterations 1
smoothSolver:  Solving for Uy, Initial residual = 0.0569761, Final residual = 0.00440626, No Iterations 1
smoothSolver:  Solving for Uz, Initial residual = 0.0316144, Final residual = 0.00125412, No Iterations 2
GAMG:  Solving for p, Initial residual = 0.195158, Final residual = 0.000613801, No Iterations 3
time step continuity errors : sum local = 0.0729669, global = -0.0215442, cumulative = 0.26313
smoothSolver:  Solving for omega, Initial residual = 0.00259425, Final residual = 0.000249304, No Iterations 2
smoothSolver:  Solving for k, Initial residual = 0.105573, Final residual = 0.00685088, No Iterations 2
ExecutionTime = 7.52 s  ClockTime = 8 s

Time = 23

smoothSolver:  Solving for Ux, Initial residual = 0.0562863, Final residual = 0.0044341, No Iterations 1
smoothSolver:  Solving for Uy, Initial residual = 0.0563987, Final residual = 0.00445581, No Iterations 1
smoothSolver:  Solving for Uz, Initial residual = 0.0297193, Final residual = 0.00122431, No Iterations 2
GAMG:  Solving for p, Initial residual = 0.189856, Final residual = 0.000550721, No Iterations 3
time step continuity errors : sum local = 0.0649342, global = -0.0237825, cumulative = 0.239348
smoothSolver:  Solving for omega, Initial residual = 0.002555, Final residual = 0.00025179, No Iterations 2
smoothSolver:  Solving for k, Initial residual = 0.102531, Final residual = 0.00725824, No Iterations 2
ExecutionTime = 7.83 s  ClockTime = 8 s

Time = 24

smoothSolver:  Solving for Ux, Initial residual = 0.0558573, Final residual = 0.00450302, No Iterations 1
smoothSolver:  Solving for Uy, Initial residual = 0.055969, Final residual = 0.00452912, No Iterations 1
smoothSolver:  Solving for Uz, Initial residual = 0.0278965, Final residual = 0.00120365, No Iterations 2
GAMG:  Solving for p, Initial residual = 0.183508, Final residual = 0.00168992, No Iterations 2
time step continuity errors : sum local = 0.197964, global = -0.0832009, cumulative = 0.156147
smoothSolver:  Solving for omega, Initial residual = 0.00248023, Final residual = 0.000247077, No Iterations 2
smoothSolver:  Solving for k, Initial residual = 0.0975865, Final residual = 0.00709255, No Iterations 2
ExecutionTime = 8.13 s  ClockTime = 8 s

Time = 25

smoothSolver:  Solving for Ux, Initial residual = 0.0556681, Final residual = 0.0045306, No Iterations 1
smoothSolver:  Solving for Uy, Initial residual = 0.0556302, Final residual = 0.00453723, No Iterations 1
smoothSolver:  Solving for Uz, Initial residual = 0.0260115, Final residual = 0.00113555, No Iterations 2
GAMG:  Solving for p, Initial residual = 0.176892, Final residual = 0.00147692, No Iterations 2
time step continuity errors : sum local = 0.171409, global = -0.0727905, cumulative = 0.0833565
smoothSolver:  Solving for omega, Initial residual = 0.00237593, Final residual = 0.000236689, No Iterations 2
smoothSolver:  Solving for k, Initial residual = 0.0896004, Final residual = 0.00703207, No Iterations 2
ExecutionTime = 8.46 s  ClockTime = 9 s

Time = 26

smoothSolver:  Solving for Ux, Initial residual = 0.0559362, Final residual = 0.0045786, No Iterations 1
smoothSolver:  Solving for Uy, Initial residual = 0.0557224, Final residual = 0.00457322, No Iterations 1
smoothSolver:  Solving for Uz, Initial residual = 0.0243551, Final residual = 0.001087, No Iterations 2
GAMG:  Solving for p, Initial residual = 0.169491, Final residual = 0.00130388, No Iterations 2
time step continuity errors : sum local = 0.149358, global = -0.0608221, cumulative = 0.0225345
smoothSolver:  Solving for omega, Initial residual = 0.00223621, Final residual = 9.00265e-05, No Iterations 3
smoothSolver:  Solving for k, Initial residual = 0.0831817, Final residual = 0.00696038, No Iterations 2
ExecutionTime = 8.85 s  ClockTime = 9 s

Time = 27

smoothSolver:  Solving for Ux, Initial residual = 0.0566134, Final residual = 0.00463859, No Iterations 1
smoothSolver:  Solving for Uy, Initial residual = 0.0563486, Final residual = 0.00464022, No Iterations 1
smoothSolver:  Solving for Uz, Initial residual = 0.0228067, Final residual = 0.00102468, No Iterations 2
GAMG:  Solving for p, Initial residual = 0.161226, Final residual = 0.00119222, No Iterations 2
time step continuity errors : sum local = 0.134689, global = -0.0466884, cumulative = -0.024154
smoothSolver:  Solving for omega, Initial residual = 0.00208078, Final residual = 0.000205683, No Iterations 2
smoothSolver:  Solving for k, Initial residual = 0.0763075, Final residual = 0.00654886, No Iterations 2
ExecutionTime = 9.16 s  ClockTime = 9 s

Time = 28

smoothSolver:  Solving for Ux, Initial residual = 0.0577906, Final residual = 0.00473346, No Iterations 1
smoothSolver:  Solving for Uy, Initial residual = 0.0575579, Final residual = 0.00474449, No Iterations 1
smoothSolver:  Solving for Uz, Initial residual = 0.0212218, Final residual = 0.000952294, No Iterations 2
GAMG:  Solving for p, Initial residual = 0.152886, Final residual = 0.00111872, No Iterations 2
time step continuity errors : sum local = 0.124491, global = -0.0348214, cumulative = -0.0589754
smoothSolver:  Solving for omega, Initial residual = 0.00201915, Final residual = 0.000192816, No Iterations 2
smoothSolver:  Solving for k, Initial residual = 0.0732197, Final residual = 0.00635202, No Iterations 2
ExecutionTime = 9.46 s  ClockTime = 10 s

Time = 29

smoothSolver:  Solving for Ux, Initial residual = 0.0598982, Final residual = 0.00489983, No Iterations 1
smoothSolver:  Solving for Uy, Initial residual = 0.0597845, Final residual = 0.00492021, No Iterations 1
smoothSolver:  Solving for Uz, Initial residual = 0.0196161, Final residual = 0.000874515, No Iterations 2
GAMG:  Solving for p, Initial residual = 0.144854, Final residual = 0.00107804, No Iterations 2
time step continuity errors : sum local = 0.117938, global = -0.0284433, cumulative = -0.0874187
smoothSolver:  Solving for omega, Initial residual = 0.00195729, Final residual = 0.000177695, No Iterations 2
smoothSolver:  Solving for k, Initial residual = 0.0705586, Final residual = 0.00544916, No Iterations 2
ExecutionTime = 9.74 s  ClockTime = 10 s

Time = 30

smoothSolver:  Solving for Ux, Initial residual = 0.0628545, Final residual = 0.00510455, No Iterations 1
smoothSolver:  Solving for Uy, Initial residual = 0.0629086, Final residual = 0.00512207, No Iterations 1
smoothSolver:  Solving for Uz, Initial residual = 0.0179611, Final residual = 0.000772653, No Iterations 2
GAMG:  Solving for p, Initial residual = 0.137888, Final residual = 0.00107321, No Iterations 2
time step continuity errors : sum local = 0.115149, global = -0.0301672, cumulative = -0.117586
smoothSolver:  Solving for omega, Initial residual = 0.00184158, Final residual = 0.00016316, No Iterations 2
smoothSolver:  Solving for k, Initial residual = 0.0661925, Final residual = 0.00427996, No Iterations 2
ExecutionTime = 10.04 s  ClockTime = 10 s

Time = 31

smoothSolver:  Solving for Ux, Initial residual = 0.0659071, Final residual = 0.0054068, No Iterations 1
smoothSolver:  Solving for Uy, Initial residual = 0.0661315, Final residual = 0.0054084, No Iterations 1
smoothSolver:  Solving for Uz, Initial residual = 0.0163449, Final residual = 0.000668229, No Iterations 2
GAMG:  Solving for p, Initial residual = 0.133036, Final residual = 0.00107683, No Iterations 2
time step continuity errors : sum local = 0.112958, global = -0.0368031, cumulative = -0.154389
smoothSolver:  Solving for omega, Initial residual = 0.00170616, Final residual = 0.000151937, No Iterations 2
smoothSolver:  Solving for k, Initial residual = 0.0596557, Final residual = 0.00324994, No Iterations 2
ExecutionTime = 10.34 s  ClockTime = 11 s

Time = 32

smoothSolver:  Solving for Ux, Initial residual = 0.0687647, Final residual = 0.00573931, No Iterations 1
smoothSolver:  Solving for Uy, Initial residual = 0.0692374, Final residual = 0.00575525, No Iterations 1
smoothSolver:  Solving for Uz, Initial residual = 0.0148076, Final residual = 0.000552647, No Iterations 2
GAMG:  Solving for p, Initial residual = 0.13062, Final residual = 0.00106259, No Iterations 2
time step continuity errors : sum local = 0.108788, global = -0.0438868, cumulative = -0.198276
smoothSolver:  Solving for omega, Initial residual = 0.00159983, Final residual = 0.00014637, No Iterations 2
smoothSolver:  Solving for k, Initial residual = 0.0524564, Final residual = 0.00263113, No Iterations 2
ExecutionTime = 10.66 s  ClockTime = 11 s

Time = 33

smoothSolver:  Solving for Ux, Initial residual = 0.0712689, Final residual = 0.00616399, No Iterations 1
smoothSolver:  Solving for Uy, Initial residual = 0.0716359, Final residual = 0.00631322, No Iterations 1
smoothSolver:  Solving for Uz, Initial residual = 0.0139248, Final residual = 0.000544459, No Iterations 2
GAMG:  Solving for p, Initial residual = 0.128529, Final residual = 0.00107396, No Iterations 2
time step continuity errors : sum local = 0.106991, global = -0.0530755, cumulative = -0.251351
smoothSolver:  Solving for omega, Initial residual = 0.00149619, Final residual = 0.000139456, No Iterations 2
smoothSolver:  Solving for k, Initial residual = 0.0456459, Final residual = 0.00210947, No Iterations 2
ExecutionTime = 10.99 s  ClockTime = 11 s

Time = 34

smoothSolver:  Solving for Ux, Initial residual = 0.0710726, Final residual = 0.00632408, No Iterations 1
smoothSolver:  Solving for Uy, Initial residual = 0.0715858, Final residual = 0.00643716, No Iterations 1
smoothSolver:  Solving for Uz, Initial residual = 0.0129435, Final residual = 0.000549164, No Iterations 2
GAMG:  Solving for p, Initial residual = 0.126025, Final residual = 0.00114625, No Iterations 2
time step continuity errors : sum local = 0.110827, global = -0.0690997, cumulative = -0.320451
smoothSolver:  Solving for omega, Initial residual = 0.00133714, Final residual = 0.000123109, No Iterations 2
smoothSolver:  Solving for k, Initial residual = 0.040771, Final residual = 0.0015432, No Iterations 2
ExecutionTime = 11.31 s  ClockTime = 12 s

Time = 35

smoothSolver:  Solving for Ux, Initial residual = 0.0683459, Final residual = 0.0058572, No Iterations 1
smoothSolver:  Solving for Uy, Initial residual = 0.0686622, Final residual = 0.00594972, No Iterations 1
smoothSolver:  Solving for Uz, Initial residual = 0.0112029, Final residual = 0.000409169, No Iterations 2
GAMG:  Solving for p, Initial residual = 0.122769, Final residual = 0.00114261, No Iterations 2
time step continuity errors : sum local = 0.108301, global = -0.0601838, cumulative = -0.380635
smoothSolver:  Solving for omega, Initial residual = 0.00117565, Final residual = 0.000113814, No Iterations 2
smoothSolver:  Solving for k, Initial residual = 0.0348376, Final residual = 0.000894729, No Iterations 2
ExecutionTime = 11.64 s  ClockTime = 12 s

Time = 36

smoothSolver:  Solving for Ux, Initial residual = 0.0634686, Final residual = 0.00517931, No Iterations 1
smoothSolver:  Solving for Uy, Initial residual = 0.0635924, Final residual = 0.00527325, No Iterations 1
smoothSolver:  Solving for Uz, Initial residual = 0.00937557, Final residual = 0.000384904, No Iterations 2
GAMG:  Solving for p, Initial residual = 0.118733, Final residual = 0.00115516, No Iterations 2
time step continuity errors : sum local = 0.107035, global = -0.0572477, cumulative = -0.437883
smoothSolver:  Solving for omega, Initial residual = 0.00102755, Final residual = 5.04388e-05, No Iterations 3
smoothSolver:  Solving for k, Initial residual = 0.0251019, Final residual = 0.000503984, No Iterations 2
ExecutionTime = 11.99 s  ClockTime = 12 s

Time = 37

smoothSolver:  Solving for Ux, Initial residual = 0.0566362, Final residual = 0.00444062, No Iterations 1
smoothSolver:  Solving for Uy, Initial residual = 0.0564735, Final residual = 0.00448157, No Iterations 1
smoothSolver:  Solving for Uz, Initial residual = 0.00803936, Final residual = 0.000400104, No Iterations 2
GAMG:  Solving for p, Initial residual = 0.113595, Final residual = 0.00113405, No Iterations 2
time step continuity errors : sum local = 0.101734, global = -0.0526653, cumulative = -0.490548
smoothSolver:  Solving for omega, Initial residual = 0.000892529, Final residual = 4.83425e-05, No Iterations 3
smoothSolver:  Solving for k, Initial residual = 0.0159171, Final residual = 0.0015044, No Iterations 1
ExecutionTime = 12.32 s  ClockTime = 13 s

Time = 38

smoothSolver:  Solving for Ux, Initial residual = 0.0499401, Final residual = 0.00388685, No Iterations 1
smoothSolver:  Solving for Uy, Initial residual = 0.0498888, Final residual = 0.00395465, No Iterations 1
smoothSolver:  Solving for Uz, Initial residual = 0.00685861, Final residual = 0.000415297, No Iterations 2
GAMG:  Solving for p, Initial residual = 0.108277, Final residual = 0.000335788, No Iterations 3
time step continuity errors : sum local = 0.0290164, global = -0.0160041, cumulative = -0.506552
smoothSolver:  Solving for omega, Initial residual = 0.00080291, Final residual = 4.33922e-05, No Iterations 3
smoothSolver:  Solving for k, Initial residual = 0.0106704, Final residual = 0.000331523, No Iterations 2
ExecutionTime = 12.65 s  ClockTime = 13 s

Time = 39

smoothSolver:  Solving for Ux, Initial residual = 0.0464128, Final residual = 0.00371663, No Iterations 1
smoothSolver:  Solving for Uy, Initial residual = 0.0466514, Final residual = 0.00381103, No Iterations 1
smoothSolver:  Solving for Uz, Initial residual = 0.00592135, Final residual = 0.00038607, No Iterations 2
GAMG:  Solving for p, Initial residual = 0.103423, Final residual = 0.00102932, No Iterations 2
time step continuity errors : sum local = 0.0856175, global = -0.0424247, cumulative = -0.548977
smoothSolver:  Solving for omega, Initial residual = 0.000769499, Final residual = 3.88595e-05, No Iterations 3
smoothSolver:  Solving for k, Initial residual = 0.00737262, Final residual = 0.000318432, No Iterations 2
ExecutionTime = 12.96 s  ClockTime = 13 s

Time = 40

smoothSolver:  Solving for Ux, Initial residual = 0.0439246, Final residual = 0.00371045, No Iterations 1
smoothSolver:  Solving for Uy, Initial residual = 0.0442609, Final residual = 0.0037346, No Iterations 1
smoothSolver:  Solving for Uz, Initial residual = 0.00541922, Final residual = 0.000364062, No Iterations 2
GAMG:  Solving for p, Initial residual = 0.0996119, Final residual = 0.000987428, No Iterations 2
time step continuity errors : sum local = 0.0793709, global = -0.0359478, cumulative = -0.584924
smoothSolver:  Solving for omega, Initial residual = 0.000746774, Final residual = 3.57725e-05, No Iterations 3
smoothSolver:  Solving for k, Initial residual = 0.00589767, Final residual = 0.000305665, No Iterations 2
ExecutionTime = 13.28 s  ClockTime = 14 s

Time = 41

smoothSolver:  Solving for Ux, Initial residual = 0.0429172, Final residual = 0.00362106, No Iterations 1
smoothSolver:  Solving for Uy, Initial residual = 0.0429586, Final residual = 0.00363506, No Iterations 1
smoothSolver:  Solving for Uz, Initial residual = 0.00514092, Final residual = 0.000322274, No Iterations 2
GAMG:  Solving for p, Initial residual = 0.0968912, Final residual = 0.000922602, No Iterations 2
time step continuity errors : sum local = 0.0713757, global = -0.0314377, cumulative = -0.616362
smoothSolver:  Solving for omega, Initial residual = 0.000717509, Final residual = 3.27298e-05, No Iterations 3
smoothSolver:  Solving for k, Initial residual = 0.00529407, Final residual = 0.000288851, No Iterations 2
ExecutionTime = 13.57 s  ClockTime = 14 s

Time = 42

smoothSolver:  Solving for Ux, Initial residual = 0.041649, Final residual = 0.00320761, No Iterations 1
smoothSolver:  Solving for Uy, Initial residual = 0.041789, Final residual = 0.00324811, No Iterations 1
smoothSolver:  Solving for Uz, Initial residual = 0.00459207, Final residual = 0.000229428, No Iterations 2
GAMG:  Solving for p, Initial residual = 0.0951862, Final residual = 0.000840026, No Iterations 2
time step continuity errors : sum local = 0.0623113, global = -0.0271273, cumulative = -0.643489
smoothSolver:  Solving for omega, Initial residual = 0.000664628, Final residual = 3.06743e-05, No Iterations 3
smoothSolver:  Solving for k, Initial residual = 0.00490629, Final residual = 0.000274026, No Iterations 2
ExecutionTime = 13.89 s  ClockTime = 14 s

Time = 43

smoothSolver:  Solving for Ux, Initial residual = 0.0403326, Final residual = 0.00260662, No Iterations 1
smoothSolver:  Solving for Uy, Initial residual = 0.0405523, Final residual = 0.00266429, No Iterations 1
smoothSolver:  Solving for Uz, Initial residual = 0.00403298, Final residual = 0.000161938, No Iterations 2
GAMG:  Solving for p, Initial residual = 0.0938832, Final residual = 0.000800767, No Iterations 2
time step continuity errors : sum local = 0.056804, global = -0.0227834, cumulative = -0.666273
smoothSolver:  Solving for omega, Initial residual = 0.000622805, Final residual = 2.88663e-05, No Iterations 3
smoothSolver:  Solving for k, Initial residual = 0.00453922, Final residual = 0.000259255, No Iterations 2
ExecutionTime = 14.18 s  ClockTime = 14 s

Time = 44

smoothSolver:  Solving for Ux, Initial residual = 0.0388178, Final residual = 0.00232354, No Iterations 1
smoothSolver:  Solving for Uy, Initial residual = 0.0390086, Final residual = 0.00233938, No Iterations 1
smoothSolver:  Solving for Uz, Initial residual = 0.00355202, Final residual = 0.000121681, No Iterations 2
GAMG:  Solving for p, Initial residual = 0.0927038, Final residual = 0.000781053, No Iterations 2
time step continuity errors : sum local = 0.0529245, global = -0.0188138, cumulative = -0.685087
smoothSolver:  Solving for omega, Initial residual = 0.000572166, Final residual = 2.70265e-05, No Iterations 3
smoothSolver:  Solving for k, Initial residual = 0.00415612, Final residual = 0.000242896, No Iterations 2
ExecutionTime = 14.47 s  ClockTime = 15 s

Time = 45

smoothSolver:  Solving for Ux, Initial residual = 0.0377232, Final residual = 0.00219287, No Iterations 1
smoothSolver:  Solving for Uy, Initial residual = 0.037916, Final residual = 0.00216675, No Iterations 1
smoothSolver:  Solving for Uz, Initial residual = 0.00318015, Final residual = 0.000102768, No Iterations 2
GAMG:  Solving for p, Initial residual = 0.0915139, Final residual = 0.000751519, No Iterations 2
time step continuity errors : sum local = 0.0485704, global = -0.0152838, cumulative = -0.700371
smoothSolver:  Solving for omega, Initial residual = 0.00052954, Final residual = 2.57716e-05, No Iterations 3
smoothSolver:  Solving for k, Initial residual = 0.0036954, Final residual = 0.000233517, No Iterations 2
ExecutionTime = 14.77 s  ClockTime = 15 s

Time = 46

smoothSolver:  Solving for Ux, Initial residual = 0.0372319, Final residual = 0.00210187, No Iterations 1
smoothSolver:  Solving for Uy, Initial residual = 0.0372946, Final residual = 0.00203228, No Iterations 1
smoothSolver:  Solving for Uz, Initial residual = 0.00290436, Final residual = 0.000280791, No Iterations 1
GAMG:  Solving for p, Initial residual = 0.0902875, Final residual = 0.000710421, No Iterations 2
time step continuity errors : sum local = 0.0437525, global = -0.0126015, cumulative = -0.712972
smoothSolver:  Solving for omega, Initial residual = 0.00048187, Final residual = 2.43488e-05, No Iterations 3
smoothSolver:  Solving for k, Initial residual = 0.0031276, Final residual = 0.000217833, No Iterations 2
ExecutionTime = 15.08 s  ClockTime = 15 s

Time = 47

smoothSolver:  Solving for Ux, Initial residual = 0.0371533, Final residual = 0.00203361, No Iterations 1
smoothSolver:  Solving for Uy, Initial residual = 0.0370991, Final residual = 0.00193166, No Iterations 1
smoothSolver:  Solving for Uz, Initial residual = 0.00269745, Final residual = 0.00025327, No Iterations 1
GAMG:  Solving for p, Initial residual = 0.0891113, Final residual = 0.000665057, No Iterations 2
time step continuity errors : sum local = 0.038997, global = -0.0106479, cumulative = -0.72362
smoothSolver:  Solving for omega, Initial residual = 0.000442076, Final residual = 2.26045e-05, No Iterations 3
smoothSolver:  Solving for k, Initial residual = 0.00259407, Final residual = 0.000203985, No Iterations 2
ExecutionTime = 15.39 s  ClockTime = 16 s

Time = 48

smoothSolver:  Solving for Ux, Initial residual = 0.0372885, Final residual = 0.00193815, No Iterations 1
smoothSolver:  Solving for Uy, Initial residual = 0.0371851, Final residual = 0.0018301, No Iterations 1
smoothSolver:  Solving for Uz, Initial residual = 0.00249932, Final residual = 0.00023086, No Iterations 1
GAMG:  Solving for p, Initial residual = 0.0880666, Final residual = 0.000622602, No Iterations 2
time step continuity errors : sum local = 0.0347467, global = -0.00974965, cumulative = -0.73337
smoothSolver:  Solving for omega, Initial residual = 0.000406089, Final residual = 2.10423e-05, No Iterations 3
smoothSolver:  Solving for k, Initial residual = 0.00212466, Final residual = 0.000192246, No Iterations 2
ExecutionTime = 15.7 s  ClockTime = 16 s

Time = 49

smoothSolver:  Solving for Ux, Initial residual = 0.0374127, Final residual = 0.00182405, No Iterations 1
smoothSolver:  Solving for Uy, Initial residual = 0.0373635, Final residual = 0.00174112, No Iterations 1
smoothSolver:  Solving for Uz, Initial residual = 0.00229524, Final residual = 0.000212628, No Iterations 1
GAMG:  Solving for p, Initial residual = 0.0871776, Final residual = 0.00059428, No Iterations 2
time step continuity errors : sum local = 0.0315693, global = -0.00937401, cumulative = -0.742744
smoothSolver:  Solving for omega, Initial residual = 0.000373391, Final residual = 2.02e-05, No Iterations 3
smoothSolver:  Solving for k, Initial residual = 0.00173571, Final residual = 8.1364e-05, No Iterations 3
ExecutionTime = 15.98 s  ClockTime = 16 s

Time = 50

smoothSolver:  Solving for Ux, Initial residual = 0.0372719, Final residual = 0.00170415, No Iterations 1
smoothSolver:  Solving for Uy, Initial residual = 0.0372716, Final residual = 0.0016726, No Iterations 1
smoothSolver:  Solving for Uz, Initial residual = 0.00210477, Final residual = 0.000197196, No Iterations 1
GAMG:  Solving for p, Initial residual = 0.0862503, Final residual = 0.000576347, No Iterations 2
time step continuity errors : sum local = 0.0291539, global = -0.00895688, cumulative = -0.751701
smoothSolver:  Solving for omega, Initial residual = 0.000342583, Final residual = 1.93212e-05, No Iterations 3
smoothSolver:  Solving for k, Initial residual = 0.00140623, Final residual = 7.7035e-05, No Iterations 3
ExecutionTime = 16.3 s  ClockTime = 17 s

Time = 51

smoothSolver:  Solving for Ux, Initial residual = 0.0367651, Final residual = 0.00163197, No Iterations 1
smoothSolver:  Solving for Uy, Initial residual = 0.0368315, Final residual = 0.00163557, No Iterations 1
smoothSolver:  Solving for Uz, Initial residual = 0.00192553, Final residual = 0.000184857, No Iterations 1
GAMG:  Solving for p, Initial residual = 0.0852604, Final residual = 0.000561196, No Iterations 2
time step continuity errors : sum local = 0.0270435, global = -0.00830637, cumulative = -0.760007
smoothSolver:  Solving for omega, Initial residual = 0.000310207, Final residual = 1.83829e-05, No Iterations 3
smoothSolver:  Solving for k, Initial residual = 0.00115283, Final residual = 7.31408e-05, No Iterations 3
ExecutionTime = 16.59 s  ClockTime = 17 s

Time = 52

smoothSolver:  Solving for Ux, Initial residual = 0.0361285, Final residual = 0.00158823, No Iterations 1
smoothSolver:  Solving for Uy, Initial residual = 0.0362282, Final residual = 0.00158585, No Iterations 1
smoothSolver:  Solving for Uz, Initial residual = 0.00175906, Final residual = 0.000170667, No Iterations 1
GAMG:  Solving for p, Initial residual = 0.0841459, Final residual = 0.000548146, No Iterations 2
time step continuity errors : sum local = 0.0251774, global = -0.00757561, cumulative = -0.767582
smoothSolver:  Solving for omega, Initial residual = 0.000278509, Final residual = 1.70486e-05, No Iterations 3
smoothSolver:  Solving for k, Initial residual = 0.000966143, Final residual = 6.9563e-05, No Iterations 3
ExecutionTime = 16.87 s  ClockTime = 17 s

Time = 53

smoothSolver:  Solving for Ux, Initial residual = 0.0354771, Final residual = 0.00151541, No Iterations 1
smoothSolver:  Solving for Uy, Initial residual = 0.0355877, Final residual = 0.00154333, No Iterations 1
smoothSolver:  Solving for Uz, Initial residual = 0.00158762, Final residual = 0.000158467, No Iterations 1
GAMG:  Solving for p, Initial residual = 0.0828551, Final residual = 0.00054407, No Iterations 2
time step continuity errors : sum local = 0.0238371, global = -0.00701044, cumulative = -0.774593
smoothSolver:  Solving for omega, Initial residual = 0.00025056, Final residual = 1.59107e-05, No Iterations 3
smoothSolver:  Solving for k, Initial residual = 0.000833658, Final residual = 6.62274e-05, No Iterations 3
ExecutionTime = 17.15 s  ClockTime = 17 s

Time = 54

smoothSolver:  Solving for Ux, Initial residual = 0.0349361, Final residual = 0.00154679, No Iterations 1
smoothSolver:  Solving for Uy, Initial residual = 0.0349958, Final residual = 0.00153786, No Iterations 1
smoothSolver:  Solving for Uz, Initial residual = 0.00143319, Final residual = 5.80972e-05, No Iterations 2
GAMG:  Solving for p, Initial residual = 0.0814158, Final residual = 0.000559039, No Iterations 2
time step continuity errors : sum local = 0.0233846, global = -0.00662851, cumulative = -0.781221
smoothSolver:  Solving for omega, Initial residual = 0.000231308, Final residual = 1.50758e-05, No Iterations 3
smoothSolver:  Solving for k, Initial residual = 0.000750388, Final residual = 6.37823e-05, No Iterations 3
ExecutionTime = 17.45 s  ClockTime = 18 s

Time = 55

smoothSolver:  Solving for Ux, Initial residual = 0.0346871, Final residual = 0.00154867, No Iterations 1
smoothSolver:  Solving for Uy, Initial residual = 0.0346591, Final residual = 0.00154992, No Iterations 1
smoothSolver:  Solving for Uz, Initial residual = 0.00128397, Final residual = 5.57897e-05, No Iterations 2
GAMG:  Solving for p, Initial residual = 0.0797651, Final residual = 0.000581365, No Iterations 2
time step continuity errors : sum local = 0.0232642, global = -0.00645226, cumulative = -0.787674
smoothSolver:  Solving for omega, Initial residual = 0.000213639, Final residual = 1.4242e-05, No Iterations 3
smoothSolver:  Solving for k, Initial residual = 0.000692502, Final residual = 6.11987e-05, No Iterations 3
ExecutionTime = 17.77 s  ClockTime = 18 s

Time = 56

smoothSolver:  Solving for Ux, Initial residual = 0.0345832, Final residual = 0.00155645, No Iterations 1
smoothSolver:  Solving for Uy, Initial residual = 0.0345281, Final residual = 0.00157161, No Iterations 1
smoothSolver:  Solving for Uz, Initial residual = 0.00116988, Final residual = 5.36594e-05, No Iterations 2
GAMG:  Solving for p, Initial residual = 0.0779249, Final residual = 0.0006023, No Iterations 2
time step continuity errors : sum local = 0.0231065, global = -0.00627904, cumulative = -0.793953
smoothSolver:  Solving for omega, Initial residual = 0.000197592, Final residual = 1.34247e-05, No Iterations 3
smoothSolver:  Solving for k, Initial residual = 0.000651742, Final residual = 5.87198e-05, No Iterations 3
ExecutionTime = 18.07 s  ClockTime = 18 s

Time = 57

smoothSolver:  Solving for Ux, Initial residual = 0.0345301, Final residual = 0.00156108, No Iterations 1
smoothSolver:  Solving for Uy, Initial residual = 0.0344802, Final residual = 0.00159307, No Iterations 1
smoothSolver:  Solving for Uz, Initial residual = 0.00108322, Final residual = 5.18344e-05, No Iterations 2
GAMG:  Solving for p, Initial residual = 0.07589, Final residual = 0.000615981, No Iterations 2
time step continuity errors : sum local = 0.0227098, global = -0.00608151, cumulative = -0.800034
smoothSolver:  Solving for omega, Initial residual = 0.000184175, Final residual = 1.27621e-05, No Iterations 3
smoothSolver:  Solving for k, Initial residual = 0.000619655, Final residual = 5.6455e-05, No Iterations 3
ExecutionTime = 18.39 s  ClockTime = 19 s

Time = 58

smoothSolver:  Solving for Ux, Initial residual = 0.0344354, Final residual = 0.00157718, No Iterations 1
smoothSolver:  Solving for Uy, Initial residual = 0.0344212, Final residual = 0.00162638, No Iterations 1
smoothSolver:  Solving for Uz, Initial residual = 0.00101374, Final residual = 5.05251e-05, No Iterations 2
GAMG:  Solving for p, Initial residual = 0.0736624, Final residual = 0.000617914, No Iterations 2
time step continuity errors : sum local = 0.0219501, global = -0.00573378, cumulative = -0.805768
smoothSolver:  Solving for omega, Initial residual = 0.000172308, Final residual = 1.22719e-05, No Iterations 3
smoothSolver:  Solving for k, Initial residual = 0.000593388, Final residual = 5.44447e-05, No Iterations 3
ExecutionTime = 18.7 s  ClockTime = 19 s

Time = 59

smoothSolver:  Solving for Ux, Initial residual = 0.0341795, Final residual = 0.00159679, No Iterations 1
smoothSolver:  Solving for Uy, Initial residual = 0.0342001, Final residual = 0.0016507, No Iterations 1
smoothSolver:  Solving for Uz, Initial residual = 0.000953577, Final residual = 4.93956e-05, No Iterations 2
GAMG:  Solving for p, Initial residual = 0.0712654, Final residual = 0.000608504, No Iterations 2
time step continuity errors : sum local = 0.0208823, global = -0.00526498, cumulative = -0.811033
smoothSolver:  Solving for omega, Initial residual = 0.000162516, Final residual = 1.19217e-05, No Iterations 3
smoothSolver:  Solving for k, Initial residual = 0.000570425, Final residual = 5.2713e-05, No Iterations 3
ExecutionTime = 19.03 s  ClockTime = 19 s

Time = 60

smoothSolver:  Solving for Ux, Initial residual = 0.0337585, Final residual = 0.00161828, No Iterations 1
smoothSolver:  Solving for Uy, Initial residual = 0.0338145, Final residual = 0.00168374, No Iterations 1
smoothSolver:  Solving for Uz, Initial residual = 0.000899685, Final residual = 4.84919e-05, No Iterations 2
GAMG:  Solving for p, Initial residual = 0.0687328, Final residual = 0.000589762, No Iterations 2
time step continuity errors : sum local = 0.0196015, global = -0.00469972, cumulative = -0.815733
smoothSolver:  Solving for omega, Initial residual = 0.000153439, Final residual = 1.15436e-05, No Iterations 3
smoothSolver:  Solving for k, Initial residual = 0.000551993, Final residual = 5.1301e-05, No Iterations 3
ExecutionTime = 19.34 s  ClockTime = 20 s

Time = 61

smoothSolver:  Solving for Ux, Initial residual = 0.0332233, Final residual = 0.00164586, No Iterations 1
smoothSolver:  Solving for Uy, Initial residual = 0.0333176, Final residual = 0.00171984, No Iterations 1
smoothSolver:  Solving for Uz, Initial residual = 0.000852053, Final residual = 4.78166e-05, No Iterations 2
GAMG:  Solving for p, Initial residual = 0.0660811, Final residual = 0.000564696, No Iterations 2
time step continuity errors : sum local = 0.0182197, global = -0.00411212, cumulative = -0.819845
smoothSolver:  Solving for omega, Initial residual = 0.000146229, Final residual = 1.11954e-05, No Iterations 3
smoothSolver:  Solving for k, Initial residual = 0.000535012, Final residual = 4.98818e-05, No Iterations 3
ExecutionTime = 19.65 s  ClockTime = 20 s

Time = 62

smoothSolver:  Solving for Ux, Initial residual = 0.0326494, Final residual = 0.00168831, No Iterations 1
smoothSolver:  Solving for Uy, Initial residual = 0.0327166, Final residual = 0.00176249, No Iterations 1
smoothSolver:  Solving for Uz, Initial residual = 0.000807766, Final residual = 4.72244e-05, No Iterations 2
GAMG:  Solving for p, Initial residual = 0.0633667, Final residual = 0.000534743, No Iterations 2
time step continuity errors : sum local = 0.0167849, global = -0.00356415, cumulative = -0.823409
smoothSolver:  Solving for omega, Initial residual = 0.000140752, Final residual = 1.09593e-05, No Iterations 3
smoothSolver:  Solving for k, Initial residual = 0.000520646, Final residual = 4.84548e-05, No Iterations 3
ExecutionTime = 19.96 s  ClockTime = 20 s

Time = 63

smoothSolver:  Solving for Ux, Initial residual = 0.0320924, Final residual = 0.00174063, No Iterations 1
smoothSolver:  Solving for Uy, Initial residual = 0.0320807, Final residual = 0.00180248, No Iterations 1
smoothSolver:  Solving for Uz, Initial residual = 0.00076857, Final residual = 4.67564e-05, No Iterations 2
GAMG:  Solving for p, Initial residual = 0.0606034, Final residual = 0.000501177, No Iterations 2
time step continuity errors : sum local = 0.0153343, global = -0.00307614, cumulative = -0.826485
smoothSolver:  Solving for omega, Initial residual = 0.000136617, Final residual = 1.06909e-05, No Iterations 3
smoothSolver:  Solving for k, Initial residual = 0.000508147, Final residual = 4.7031e-05, No Iterations 3
ExecutionTime = 20.25 s  ClockTime = 20 s

Time = 64

smoothSolver:  Solving for Ux, Initial residual = 0.0316871, Final residual = 0.00177653, No Iterations 1
smoothSolver:  Solving for Uy, Initial residual = 0.0315399, Final residual = 0.00182475, No Iterations 1
smoothSolver:  Solving for Uz, Initial residual = 0.000733025, Final residual = 4.61004e-05, No Iterations 2
GAMG:  Solving for p, Initial residual = 0.0578505, Final residual = 0.000466497, No Iterations 2
time step continuity errors : sum local = 0.0139377, global = -0.00266114, cumulative = -0.829146
smoothSolver:  Solving for omega, Initial residual = 0.00013285, Final residual = 1.03879e-05, No Iterations 3
smoothSolver:  Solving for k, Initial residual = 0.000495577, Final residual = 4.55963e-05, No Iterations 3
ExecutionTime = 20.57 s  ClockTime = 21 s

Time = 65

smoothSolver:  Solving for Ux, Initial residual = 0.0314267, Final residual = 0.00181529, No Iterations 1
smoothSolver:  Solving for Uy, Initial residual = 0.0311636, Final residual = 0.00184611, No Iterations 1
smoothSolver:  Solving for Uz, Initial residual = 0.000698751, Final residual = 4.55343e-05, No Iterations 2
GAMG:  Solving for p, Initial residual = 0.0551116, Final residual = 0.000434727, No Iterations 2
time step continuity errors : sum local = 0.0127033, global = -0.00232481, cumulative = -0.831471
smoothSolver:  Solving for omega, Initial residual = 0.000129309, Final residual = 1.01945e-05, No Iterations 3
smoothSolver:  Solving for k, Initial residual = 0.000482919, Final residual = 4.41485e-05, No Iterations 3
ExecutionTime = 20.88 s  ClockTime = 21 s

Time = 66

smoothSolver:  Solving for Ux, Initial residual = 0.0312165, Final residual = 0.00186887, No Iterations 1
smoothSolver:  Solving for Uy, Initial residual = 0.0308477, Final residual = 0.00188442, No Iterations 1
smoothSolver:  Solving for Uz, Initial residual = 0.000666006, Final residual = 4.51734e-05, No Iterations 2
GAMG:  Solving for p, Initial residual = 0.0524226, Final residual = 0.000407887, No Iterations 2
time step continuity errors : sum local = 0.0116736, global = -0.00206813, cumulative = -0.833539
smoothSolver:  Solving for omega, Initial residual = 0.000125849, Final residual = 1.00562e-05, No Iterations 3
smoothSolver:  Solving for k, Initial residual = 0.000470224, Final residual = 4.28322e-05, No Iterations 3
ExecutionTime = 21.18 s  ClockTime = 21 s

Time = 67

smoothSolver:  Solving for Ux, Initial residual = 0.0309718, Final residual = 0.00193667, No Iterations 1
smoothSolver:  Solving for Uy, Initial residual = 0.0305216, Final residual = 0.00193255, No Iterations 1
smoothSolver:  Solving for Uz, Initial residual = 0.000635958, Final residual = 4.48346e-05, No Iterations 2
GAMG:  Solving for p, Initial residual = 0.0497926, Final residual = 0.000385813, No Iterations 2
time step continuity errors : sum local = 0.0108286, global = -0.00188213, cumulative = -0.835421
smoothSolver:  Solving for omega, Initial residual = 0.000121998, Final residual = 9.89257e-06, No Iterations 3
smoothSolver:  Solving for k, Initial residual = 0.000457766, Final residual = 4.15525e-05, No Iterations 3
ExecutionTime = 21.49 s  ClockTime = 22 s

Time = 68

smoothSolver:  Solving for Ux, Initial residual = 0.0306722, Final residual = 0.00200769, No Iterations 1
smoothSolver:  Solving for Uy, Initial residual = 0.0301698, Final residual = 0.00200626, No Iterations 1
smoothSolver:  Solving for Uz, Initial residual = 0.000607286, Final residual = 4.4389e-05, No Iterations 2
GAMG:  Solving for p, Initial residual = 0.0472465, Final residual = 0.000366874, No Iterations 2
time step continuity errors : sum local = 0.0101103, global = -0.00173406, cumulative = -0.837155
smoothSolver:  Solving for omega, Initial residual = 0.000118532, Final residual = 9.70641e-06, No Iterations 3
smoothSolver:  Solving for k, Initial residual = 0.000445032, Final residual = 4.02678e-05, No Iterations 3
ExecutionTime = 21.81 s  ClockTime = 22 s

Time = 69

smoothSolver:  Solving for Ux, Initial residual = 0.030328, Final residual = 0.00209692, No Iterations 1
smoothSolver:  Solving for Uy, Initial residual = 0.0298194, Final residual = 0.00209678, No Iterations 1
smoothSolver:  Solving for Uz, Initial residual = 0.000578673, Final residual = 4.37571e-05, No Iterations 2
GAMG:  Solving for p, Initial residual = 0.0447874, Final residual = 0.000350917, No Iterations 2
time step continuity errors : sum local = 0.00950526, global = -0.00159529, cumulative = -0.838751
smoothSolver:  Solving for omega, Initial residual = 0.000115089, Final residual = 9.50228e-06, No Iterations 3
smoothSolver:  Solving for k, Initial residual = 0.000432917, Final residual = 3.89922e-05, No Iterations 3
ExecutionTime = 22.1 s  ClockTime = 22 s

Time = 70

smoothSolver:  Solving for Ux, Initial residual = 0.029972, Final residual = 0.00221317, No Iterations 1
smoothSolver:  Solving for Uy, Initial residual = 0.0295311, Final residual = 0.00219047, No Iterations 1
smoothSolver:  Solving for Uz, Initial residual = 0.000551592, Final residual = 4.31273e-05, No Iterations 2
GAMG:  Solving for p, Initial residual = 0.0424105, Final residual = 0.000337807, No Iterations 2
time step continuity errors : sum local = 0.00900242, global = -0.00145774, cumulative = -0.840208
smoothSolver:  Solving for omega, Initial residual = 0.000112178, Final residual = 9.31757e-06, No Iterations 3
smoothSolver:  Solving for k, Initial residual = 0.000421435, Final residual = 3.77398e-05, No Iterations 3
ExecutionTime = 22.4 s  ClockTime = 23 s

Time = 71

smoothSolver:  Solving for Ux, Initial residual = 0.0296888, Final residual = 0.00232899, No Iterations 1
smoothSolver:  Solving for Uy, Initial residual = 0.0292617, Final residual = 0.00230097, No Iterations 1
smoothSolver:  Solving for Uz, Initial residual = 0.00052571, Final residual = 4.24672e-05, No Iterations 2
GAMG:  Solving for p, Initial residual = 0.0401336, Final residual = 0.00032811, No Iterations 2
time step continuity errors : sum local = 0.00861058, global = -0.00132773, cumulative = -0.841536
smoothSolver:  Solving for omega, Initial residual = 0.000109187, Final residual = 9.16022e-06, No Iterations 3
smoothSolver:  Solving for k, Initial residual = 0.000410336, Final residual = 3.65688e-05, No Iterations 3
ExecutionTime = 22.73 s  ClockTime = 23 s

Time = 72

smoothSolver:  Solving for Ux, Initial residual = 0.0294083, Final residual = 0.00244462, No Iterations 1
smoothSolver:  Solving for Uy, Initial residual = 0.0290467, Final residual = 0.00241601, No Iterations 1
smoothSolver:  Solving for Uz, Initial residual = 0.000501654, Final residual = 4.19282e-05, No Iterations 2
GAMG:  Solving for p, Initial residual = 0.0379462, Final residual = 0.000322018, No Iterations 2
time step continuity errors : sum local = 0.00832916, global = -0.00121924, cumulative = -0.842755
smoothSolver:  Solving for omega, Initial residual = 0.000106661, Final residual = 9.02694e-06, No Iterations 3
smoothSolver:  Solving for k, Initial residual = 0.000399985, Final residual = 3.55349e-05, No Iterations 3
ExecutionTime = 23.07 s  ClockTime = 23 s

Time = 73

smoothSolver:  Solving for Ux, Initial residual = 0.0291554, Final residual = 0.00255727, No Iterations 1
smoothSolver:  Solving for Uy, Initial residual = 0.0288869, Final residual = 0.00253846, No Iterations 1
smoothSolver:  Solving for Uz, Initial residual = 0.000480131, Final residual = 4.14858e-05, No Iterations 2
GAMG:  Solving for p, Initial residual = 0.0358626, Final residual = 0.000319826, No Iterations 2
time step continuity errors : sum local = 0.00816045, global = -0.00113886, cumulative = -0.843894
smoothSolver:  Solving for omega, Initial residual = 0.000104129, Final residual = 8.9001e-06, No Iterations 3
smoothSolver:  Solving for k, Initial residual = 0.000390383, Final residual = 3.45854e-05, No Iterations 3
ExecutionTime = 23.38 s  ClockTime = 24 s

Time = 74

smoothSolver:  Solving for Ux, Initial residual = 0.028927, Final residual = 0.00265825, No Iterations 1
smoothSolver:  Solving for Uy, Initial residual = 0.0287439, Final residual = 0.0026654, No Iterations 1
smoothSolver:  Solving for Uz, Initial residual = 0.000459765, Final residual = 4.10889e-05, No Iterations 2
GAMG:  Solving for p, Initial residual = 0.0338806, Final residual = 0.000320265, No Iterations 2
time step continuity errors : sum local = 0.00806775, global = -0.0010833, cumulative = -0.844978
smoothSolver:  Solving for omega, Initial residual = 0.000101524, Final residual = 8.77466e-06, No Iterations 3
smoothSolver:  Solving for k, Initial residual = 0.000381323, Final residual = 3.37278e-05, No Iterations 3
ExecutionTime = 23.71 s  ClockTime = 24 s

Time = 75

smoothSolver:  Solving for Ux, Initial residual = 0.0287205, Final residual = 0.00274145, No Iterations 1
smoothSolver:  Solving for Uy, Initial residual = 0.0286068, Final residual = 0.00277953, No Iterations 1
smoothSolver:  Solving for Uz, Initial residual = 0.00044054, Final residual = 4.06339e-05, No Iterations 2
GAMG:  Solving for p, Initial residual = 0.0319988, Final residual = 0.000123813, No Iterations 3
time step continuity errors : sum local = 0.003082, global = -0.000655877, cumulative = -0.845633
smoothSolver:  Solving for omega, Initial residual = 9.89575e-05, Final residual = 8.61966e-06, No Iterations 3
smoothSolver:  Solving for k, Initial residual = 0.000371886, Final residual = 3.28059e-05, No Iterations 3
ExecutionTime = 24.07 s  ClockTime = 24 s

Time = 76

smoothSolver:  Solving for Ux, Initial residual = 0.0286094, Final residual = 0.00283928, No Iterations 1
smoothSolver:  Solving for Uy, Initial residual = 0.0285878, Final residual = 0.00128699, No Iterations 2
smoothSolver:  Solving for Uz, Initial residual = 0.000425711, Final residual = 3.99653e-05, No Iterations 2
GAMG:  Solving for p, Initial residual = 0.030206, Final residual = 0.000119099, No Iterations 3
time step continuity errors : sum local = 0.00293169, global = -0.000604826, cumulative = -0.846238
smoothSolver:  Solving for omega, Initial residual = 9.74222e-05, Final residual = 8.50142e-06, No Iterations 3
smoothSolver:  Solving for k, Initial residual = 0.000364144, Final residual = 3.19972e-05, No Iterations 3
ExecutionTime = 24.41 s  ClockTime = 25 s

Time = 77

smoothSolver:  Solving for Ux, Initial residual = 0.0284006, Final residual = 0.00130586, No Iterations 2
smoothSolver:  Solving for Uy, Initial residual = 0.0281645, Final residual = 0.0012933, No Iterations 2
smoothSolver:  Solving for Uz, Initial residual = 0.000417022, Final residual = 3.96822e-05, No Iterations 2
GAMG:  Solving for p, Initial residual = 0.0285335, Final residual = 0.000115731, No Iterations 3
time step continuity errors : sum local = 0.00281809, global = -0.000565441, cumulative = -0.846804
smoothSolver:  Solving for omega, Initial residual = 9.60265e-05, Final residual = 8.37844e-06, No Iterations 3
smoothSolver:  Solving for k, Initial residual = 0.000357699, Final residual = 3.12484e-05, No Iterations 3
ExecutionTime = 24.73 s  ClockTime = 25 s

Time = 78

smoothSolver:  Solving for Ux, Initial residual = 0.0276559, Final residual = 0.00129692, No Iterations 2
smoothSolver:  Solving for Uy, Initial residual = 0.0275286, Final residual = 0.00128076, No Iterations 2
smoothSolver:  Solving for Uz, Initial residual = 0.000406476, Final residual = 3.93353e-05, No Iterations 2
GAMG:  Solving for p, Initial residual = 0.0269618, Final residual = 0.000111843, No Iterations 3
time step continuity errors : sum local = 0.00269363, global = -0.00053085, cumulative = -0.847335
smoothSolver:  Solving for omega, Initial residual = 9.41564e-05, Final residual = 8.2186e-06, No Iterations 3
smoothSolver:  Solving for k, Initial residual = 0.000349921, Final residual = 3.04616e-05, No Iterations 3
ExecutionTime = 25.05 s  ClockTime = 25 s

Time = 79

smoothSolver:  Solving for Ux, Initial residual = 0.0267564, Final residual = 0.00126861, No Iterations 2
smoothSolver:  Solving for Uy, Initial residual = 0.0267092, Final residual = 0.0012577, No Iterations 2
smoothSolver:  Solving for Uz, Initial residual = 0.000391708, Final residual = 3.87758e-05, No Iterations 2
GAMG:  Solving for p, Initial residual = 0.0254721, Final residual = 0.000106406, No Iterations 3
time step continuity errors : sum local = 0.00253498, global = -0.00050275, cumulative = -0.847837
smoothSolver:  Solving for omega, Initial residual = 9.19647e-05, Final residual = 8.04172e-06, No Iterations 3
smoothSolver:  Solving for k, Initial residual = 0.000340576, Final residual = 2.96704e-05, No Iterations 3
ExecutionTime = 25.38 s  ClockTime = 26 s

Time = 80

smoothSolver:  Solving for Ux, Initial residual = 0.0258557, Final residual = 0.00123442, No Iterations 2
smoothSolver:  Solving for Uy, Initial residual = 0.0257836, Final residual = 0.00123017, No Iterations 2
smoothSolver:  Solving for Uz, Initial residual = 0.000375268, Final residual = 1.81099e-05, No Iterations 3
GAMG:  Solving for p, Initial residual = 0.0240625, Final residual = 0.000100576, No Iterations 3
time step continuity errors : sum local = 0.0023712, global = -0.000482119, cumulative = -0.848319
smoothSolver:  Solving for omega, Initial residual = 9.08082e-05, Final residual = 7.95186e-06, No Iterations 3
smoothSolver:  Solving for k, Initial residual = 0.000332153, Final residual = 2.90064e-05, No Iterations 3
ExecutionTime = 25.7 s  ClockTime = 26 s

Time = 81

smoothSolver:  Solving for Ux, Initial residual = 0.0250843, Final residual = 0.00121882, No Iterations 2
smoothSolver:  Solving for Uy, Initial residual = 0.0249307, Final residual = 0.00121861, No Iterations 2
smoothSolver:  Solving for Uz, Initial residual = 0.000356784, Final residual = 1.77021e-05, No Iterations 3
GAMG:  Solving for p, Initial residual = 0.0227047, Final residual = 9.44803e-05, No Iterations 3
time step continuity errors : sum local = 0.00220693, global = -0.000468884, cumulative = -0.848788
smoothSolver:  Solving for omega, Initial residual = 8.92419e-05, Final residual = 7.83153e-06, No Iterations 3
smoothSolver:  Solving for k, Initial residual = 0.000321705, Final residual = 2.82806e-05, No Iterations 3
ExecutionTime = 26.02 s  ClockTime = 26 s

Time = 82

smoothSolver:  Solving for Ux, Initial residual = 0.0244719, Final residual = 0.00122267, No Iterations 2
smoothSolver:  Solving for Uy, Initial residual = 0.0242589, Final residual = 0.0012245, No Iterations 2
smoothSolver:  Solving for Uz, Initial residual = 0.000339172, Final residual = 1.72478e-05, No Iterations 3
GAMG:  Solving for p, Initial residual = 0.021401, Final residual = 8.85171e-05, No Iterations 3
time step continuity errors : sum local = 0.00205042, global = -0.00045307, cumulative = -0.849241
smoothSolver:  Solving for omega, Initial residual = 8.73868e-05, Final residual = 7.70352e-06, No Iterations 3
smoothSolver:  Solving for k, Initial residual = 0.000310206, Final residual = 2.75583e-05, No Iterations 3
ExecutionTime = 26.33 s  ClockTime = 27 s

Time = 83

smoothSolver:  Solving for Ux, Initial residual = 0.0239622, Final residual = 0.00124609, No Iterations 2
smoothSolver:  Solving for Uy, Initial residual = 0.0237145, Final residual = 0.00124146, No Iterations 2
smoothSolver:  Solving for Uz, Initial residual = 0.000323359, Final residual = 1.68106e-05, No Iterations 3
GAMG:  Solving for p, Initial residual = 0.020156, Final residual = 8.30151e-05, No Iterations 3
time step continuity errors : sum local = 0.00190803, global = -0.000428904, cumulative = -0.84967
smoothSolver:  Solving for omega, Initial residual = 8.54483e-05, Final residual = 7.57128e-06, No Iterations 3
smoothSolver:  Solving for k, Initial residual = 0.000298325, Final residual = 2.68538e-05, No Iterations 3
ExecutionTime = 26.65 s  ClockTime = 27 s

Time = 84

smoothSolver:  Solving for Ux, Initial residual = 0.023514, Final residual = 0.00128147, No Iterations 2
smoothSolver:  Solving for Uy, Initial residual = 0.0232331, Final residual = 0.00126858, No Iterations 2
smoothSolver:  Solving for Uz, Initial residual = 0.000308556, Final residual = 1.64062e-05, No Iterations 3
GAMG:  Solving for p, Initial residual = 0.0189781, Final residual = 7.82234e-05, No Iterations 3
time step continuity errors : sum local = 0.00178438, global = -0.000396906, cumulative = -0.850067
smoothSolver:  Solving for omega, Initial residual = 8.36763e-05, Final residual = 7.44319e-06, No Iterations 3
smoothSolver:  Solving for k, Initial residual = 0.000286392, Final residual = 2.617e-05, No Iterations 3
ExecutionTime = 27 s  ClockTime = 27 s

Time = 85

smoothSolver:  Solving for Ux, Initial residual = 0.023092, Final residual = 0.001324, No Iterations 2
smoothSolver:  Solving for Uy, Initial residual = 0.0227477, Final residual = 0.00130186, No Iterations 2
smoothSolver:  Solving for Uz, Initial residual = 0.000295031, Final residual = 1.60397e-05, No Iterations 3
GAMG:  Solving for p, Initial residual = 0.0178692, Final residual = 7.38821e-05, No Iterations 3
time step continuity errors : sum local = 0.00167272, global = -0.00035961, cumulative = -0.850427
smoothSolver:  Solving for omega, Initial residual = 8.19629e-05, Final residual = 7.32352e-06, No Iterations 3
smoothSolver:  Solving for k, Initial residual = 0.000275403, Final residual = 2.55001e-05, No Iterations 3
ExecutionTime = 27.31 s  ClockTime = 28 s

Time = 86

smoothSolver:  Solving for Ux, Initial residual = 0.0226345, Final residual = 0.00136589, No Iterations 2
smoothSolver:  Solving for Uy, Initial residual = 0.0222022, Final residual = 0.00133312, No Iterations 2
smoothSolver:  Solving for Uz, Initial residual = 0.000282624, Final residual = 1.57055e-05, No Iterations 3
GAMG:  Solving for p, Initial residual = 0.0168271, Final residual = 7.01128e-05, No Iterations 3
time step continuity errors : sum local = 0.00157543, global = -0.00031944, cumulative = -0.850746
smoothSolver:  Solving for omega, Initial residual = 8.02296e-05, Final residual = 7.20788e-06, No Iterations 3
smoothSolver:  Solving for k, Initial residual = 0.00026576, Final residual = 2.48662e-05, No Iterations 3
ExecutionTime = 27.65 s  ClockTime = 28 s

Time = 87

smoothSolver:  Solving for Ux, Initial residual = 0.0220955, Final residual = 0.00140344, No Iterations 2
smoothSolver:  Solving for Uy, Initial residual = 0.0215914, Final residual = 0.00135817, No Iterations 2
smoothSolver:  Solving for Uz, Initial residual = 0.000271573, Final residual = 1.5406e-05, No Iterations 3
GAMG:  Solving for p, Initial residual = 0.0158524, Final residual = 6.68918e-05, No Iterations 3
time step continuity errors : sum local = 0.00149177, global = -0.00027859, cumulative = -0.851025
smoothSolver:  Solving for omega, Initial residual = 7.86074e-05, Final residual = 7.10542e-06, No Iterations 3
smoothSolver:  Solving for k, Initial residual = 0.000257936, Final residual = 2.43073e-05, No Iterations 3
ExecutionTime = 27.98 s  ClockTime = 28 s

Time = 88

smoothSolver:  Solving for Ux, Initial residual = 0.0214929, Final residual = 0.00143443, No Iterations 2
smoothSolver:  Solving for Uy, Initial residual = 0.0209201, Final residual = 0.00137686, No Iterations 2
smoothSolver:  Solving for Uz, Initial residual = 0.000261507, Final residual = 1.51251e-05, No Iterations 3
GAMG:  Solving for p, Initial residual = 0.0149388, Final residual = 6.44044e-05, No Iterations 3
time step continuity errors : sum local = 0.0014258, global = -0.000238754, cumulative = -0.851264
smoothSolver:  Solving for omega, Initial residual = 7.72175e-05, Final residual = 7.02403e-06, No Iterations 3
smoothSolver:  Solving for k, Initial residual = 0.000251745, Final residual = 2.38212e-05, No Iterations 3
ExecutionTime = 28.28 s  ClockTime = 29 s

Time = 89

smoothSolver:  Solving for Ux, Initial residual = 0.0208698, Final residual = 0.00145804, No Iterations 2
smoothSolver:  Solving for Uy, Initial residual = 0.0202067, Final residual = 0.00138731, No Iterations 2
smoothSolver:  Solving for Uz, Initial residual = 0.000251624, Final residual = 1.48617e-05, No Iterations 3
GAMG:  Solving for p, Initial residual = 0.0140793, Final residual = 6.25232e-05, No Iterations 3
time step continuity errors : sum local = 0.00137464, global = -0.000201645, cumulative = -0.851465
smoothSolver:  Solving for omega, Initial residual = 7.60259e-05, Final residual = 6.962e-06, No Iterations 3
smoothSolver:  Solving for k, Initial residual = 0.00024714, Final residual = 2.34134e-05, No Iterations 3
ExecutionTime = 28.62 s  ClockTime = 29 s

Time = 90

smoothSolver:  Solving for Ux, Initial residual = 0.0202611, Final residual = 0.00147452, No Iterations 2
smoothSolver:  Solving for Uy, Initial residual = 0.0194826, Final residual = 0.0013904, No Iterations 2
smoothSolver:  Solving for Uz, Initial residual = 0.000242378, Final residual = 1.46136e-05, No Iterations 3
GAMG:  Solving for p, Initial residual = 0.0132653, Final residual = 6.04515e-05, No Iterations 3
time step continuity errors : sum local = 0.00132081, global = -0.000168113, cumulative = -0.851633
smoothSolver:  Solving for omega, Initial residual = 7.50196e-05, Final residual = 6.91097e-06, No Iterations 3
smoothSolver:  Solving for k, Initial residual = 0.000243505, Final residual = 2.30657e-05, No Iterations 3
ExecutionTime = 28.96 s  ClockTime = 29 s

Time = 91

smoothSolver:  Solving for Ux, Initial residual = 0.0196795, Final residual = 0.00148456, No Iterations 2
smoothSolver:  Solving for Uy, Initial residual = 0.0187574, Final residual = 0.0013859, No Iterations 2
smoothSolver:  Solving for Uz, Initial residual = 0.000233701, Final residual = 1.43774e-05, No Iterations 3
GAMG:  Solving for p, Initial residual = 0.0124928, Final residual = 5.83039e-05, No Iterations 3
time step continuity errors : sum local = 0.00126696, global = -0.000139647, cumulative = -0.851773
smoothSolver:  Solving for omega, Initial residual = 7.41401e-05, Final residual = 6.86291e-06, No Iterations 3
smoothSolver:  Solving for k, Initial residual = 0.000240937, Final residual = 2.27797e-05, No Iterations 3
ExecutionTime = 29.3 s  ClockTime = 30 s

Time = 92

smoothSolver:  Solving for Ux, Initial residual = 0.019113, Final residual = 0.00149141, No Iterations 2
smoothSolver:  Solving for Uy, Initial residual = 0.0180353, Final residual = 0.00137672, No Iterations 2
smoothSolver:  Solving for Uz, Initial residual = 0.000225611, Final residual = 1.41516e-05, No Iterations 3
GAMG:  Solving for p, Initial residual = 0.0117612, Final residual = 5.58822e-05, No Iterations 3
time step continuity errors : sum local = 0.00120879, global = -0.000116902, cumulative = -0.85189
smoothSolver:  Solving for omega, Initial residual = 7.32861e-05, Final residual = 6.81624e-06, No Iterations 3
smoothSolver:  Solving for k, Initial residual = 0.00023879, Final residual = 2.2558e-05, No Iterations 3
ExecutionTime = 29.69 s  ClockTime = 30 s

Time = 93

smoothSolver:  Solving for Ux, Initial residual = 0.0185563, Final residual = 0.00149578, No Iterations 2
smoothSolver:  Solving for Uy, Initial residual = 0.0173169, Final residual = 0.00136396, No Iterations 2
smoothSolver:  Solving for Uz, Initial residual = 0.000217824, Final residual = 1.39277e-05, No Iterations 3
GAMG:  Solving for p, Initial residual = 0.0110697, Final residual = 5.34923e-05, No Iterations 3
time step continuity errors : sum local = 0.00115278, global = -0.000100372, cumulative = -0.85199
smoothSolver:  Solving for omega, Initial residual = 7.24429e-05, Final residual = 6.76289e-06, No Iterations 3
smoothSolver:  Solving for k, Initial residual = 0.000236767, Final residual = 2.2365e-05, No Iterations 3
ExecutionTime = 30.01 s  ClockTime = 30 s

Time = 94

smoothSolver:  Solving for Ux, Initial residual = 0.0180174, Final residual = 0.00149845, No Iterations 2
smoothSolver:  Solving for Uy, Initial residual = 0.016606, Final residual = 0.00134858, No Iterations 2
smoothSolver:  Solving for Uz, Initial residual = 0.000210155, Final residual = 1.37061e-05, No Iterations 3
GAMG:  Solving for p, Initial residual = 0.0104175, Final residual = 5.11536e-05, No Iterations 3
time step continuity errors : sum local = 0.00109911, global = -8.99219e-05, cumulative = -0.85208
smoothSolver:  Solving for omega, Initial residual = 7.16051e-05, Final residual = 6.69887e-06, No Iterations 3
smoothSolver:  Solving for k, Initial residual = 0.000234699, Final residual = 2.21847e-05, No Iterations 3
ExecutionTime = 30.35 s  ClockTime = 31 s

Time = 95

smoothSolver:  Solving for Ux, Initial residual = 0.0174909, Final residual = 0.00150033, No Iterations 2
smoothSolver:  Solving for Uy, Initial residual = 0.0159029, Final residual = 0.00133111, No Iterations 2
smoothSolver:  Solving for Uz, Initial residual = 0.000202637, Final residual = 1.34837e-05, No Iterations 3
GAMG:  Solving for p, Initial residual = 0.00980297, Final residual = 4.90438e-05, No Iterations 3
time step continuity errors : sum local = 0.00105128, global = -8.52489e-05, cumulative = -0.852165
smoothSolver:  Solving for omega, Initial residual = 7.07424e-05, Final residual = 6.62585e-06, No Iterations 3
smoothSolver:  Solving for k, Initial residual = 0.000232434, Final residual = 2.20107e-05, No Iterations 3
ExecutionTime = 30.65 s  ClockTime = 31 s

Time = 96

smoothSolver:  Solving for Ux, Initial residual = 0.0169929, Final residual = 0.00150197, No Iterations 2
smoothSolver:  Solving for Uy, Initial residual = 0.0152235, Final residual = 0.00131283, No Iterations 2
smoothSolver:  Solving for Uz, Initial residual = 0.000195366, Final residual = 1.32687e-05, No Iterations 3
GAMG:  Solving for p, Initial residual = 0.00922418, Final residual = 4.71479e-05, No Iterations 3
time step continuity errors : sum local = 0.0010087, global = -8.54936e-05, cumulative = -0.852251
smoothSolver:  Solving for omega, Initial residual = 6.9822e-05, Final residual = 6.54484e-06, No Iterations 3
smoothSolver:  Solving for k, Initial residual = 0.000229834, Final residual = 2.18325e-05, No Iterations 3
ExecutionTime = 30.99 s  ClockTime = 31 s

Time = 97

smoothSolver:  Solving for Ux, Initial residual = 0.0165204, Final residual = 0.0015039, No Iterations 2
smoothSolver:  Solving for Uy, Initial residual = 0.0145687, Final residual = 0.00129394, No Iterations 2
smoothSolver:  Solving for Uz, Initial residual = 0.000188353, Final residual = 1.30598e-05, No Iterations 3
GAMG:  Solving for p, Initial residual = 0.00867875, Final residual = 4.54088e-05, No Iterations 3
time step continuity errors : sum local = 0.000969903, global = -8.94262e-05, cumulative = -0.85234
smoothSolver:  Solving for omega, Initial residual = 6.88885e-05, Final residual = 6.46318e-06, No Iterations 3
smoothSolver:  Solving for k, Initial residual = 0.000226896, Final residual = 2.16432e-05, No Iterations 3
ExecutionTime = 31.32 s  ClockTime = 32 s

Time = 98

smoothSolver:  Solving for Ux, Initial residual = 0.0160814, Final residual = 0.00150679, No Iterations 2
smoothSolver:  Solving for Uy, Initial residual = 0.013947, Final residual = 0.00127464, No Iterations 2
smoothSolver:  Solving for Uz, Initial residual = 0.000181729, Final residual = 1.28576e-05, No Iterations 3
GAMG:  Solving for p, Initial residual = 0.00816734, Final residual = 4.39768e-05, No Iterations 3
time step continuity errors : sum local = 0.000937922, global = -9.57011e-05, cumulative = -0.852436
smoothSolver:  Solving for omega, Initial residual = 6.80125e-05, Final residual = 6.38377e-06, No Iterations 3
smoothSolver:  Solving for k, Initial residual = 0.000223738, Final residual = 2.14365e-05, No Iterations 3
ExecutionTime = 31.65 s  ClockTime = 32 s

Time = 99

smoothSolver:  Solving for Ux, Initial residual = 0.0156606, Final residual = 0.00151039, No Iterations 2
[...]
smoothSolver:  Solving for Uz, Initial residual = 2.19347e-06, Final residual = 9.46658e-07, No Iterations 1
GAMG:  Solving for p, Initial residual = 1.9636e-05, Final residual = 4.51158e-07, No Iterations 2
time step continuity errors : sum local = 8.87788e-06, global = -2.80927e-07, cumulative = -0.854347
smoothSolver:  Solving for omega, Initial residual = 1.33208e-06, Final residual = 5.88166e-07, No Iterations 1
smoothSolver:  Solving for k, Initial residual = 3.4302e-06, Final residual = 7.49797e-07, No Iterations 2
ExecutionTime = 152.78 s  ClockTime = 153 s

Time = 459

smoothSolver:  Solving for Ux, Initial residual = 7.06093e-05, Final residual = 4.7682e-06, No Iterations 3
smoothSolver:  Solving for Uy, Initial residual = 0.000132274, Final residual = 8.47884e-06, No Iterations 3
smoothSolver:  Solving for Uz, Initial residual = 2.18238e-06, Final residual = 9.4191e-07, No Iterations 1
GAMG:  Solving for p, Initial residual = 1.96283e-05, Final residual = 4.493e-07, No Iterations 2
time step continuity errors : sum local = 8.84122e-06, global = -2.70689e-07, cumulative = -0.854347
smoothSolver:  Solving for omega, Initial residual = 1.32394e-06, Final residual = 5.846e-07, No Iterations 1
smoothSolver:  Solving for k, Initial residual = 3.40575e-06, Final residual = 7.44536e-07, No Iterations 2
ExecutionTime = 153.08 s  ClockTime = 153 s

Time = 460

smoothSolver:  Solving for Ux, Initial residual = 6.98406e-05, Final residual = 4.72105e-06, No Iterations 3
smoothSolver:  Solving for Uy, Initial residual = 0.000130757, Final residual = 8.41475e-06, No Iterations 3
smoothSolver:  Solving for Uz, Initial residual = 2.17045e-06, Final residual = 9.36961e-07, No Iterations 1
GAMG:  Solving for p, Initial residual = 1.95928e-05, Final residual = 4.4745e-07, No Iterations 2
time step continuity errors : sum local = 8.80471e-06, global = -2.54265e-07, cumulative = -0.854347
smoothSolver:  Solving for omega, Initial residual = 1.31636e-06, Final residual = 5.81452e-07, No Iterations 1
smoothSolver:  Solving for k, Initial residual = 3.38148e-06, Final residual = 7.39379e-07, No Iterations 2
ExecutionTime = 153.39 s  ClockTime = 154 s

Time = 461

smoothSolver:  Solving for Ux, Initial residual = 6.90626e-05, Final residual = 4.67391e-06, No Iterations 3
smoothSolver:  Solving for Uy, Initial residual = 0.000129227, Final residual = 8.35092e-06, No Iterations 3
smoothSolver:  Solving for Uz, Initial residual = 2.15779e-06, Final residual = 9.31878e-07, No Iterations 1
GAMG:  Solving for p, Initial residual = 1.95543e-05, Final residual = 4.45904e-07, No Iterations 2
time step continuity errors : sum local = 8.7742e-06, global = -2.42716e-07, cumulative = -0.854347
smoothSolver:  Solving for omega, Initial residual = 1.30929e-06, Final residual = 5.78517e-07, No Iterations 1
smoothSolver:  Solving for k, Initial residual = 3.35748e-06, Final residual = 7.34339e-07, No Iterations 2
ExecutionTime = 153.7 s  ClockTime = 154 s

Time = 462

smoothSolver:  Solving for Ux, Initial residual = 6.82816e-05, Final residual = 4.63004e-06, No Iterations 3
smoothSolver:  Solving for Uy, Initial residual = 0.000127709, Final residual = 8.28992e-06, No Iterations 3
smoothSolver:  Solving for Uz, Initial residual = 2.14457e-06, Final residual = 9.26664e-07, No Iterations 1
GAMG:  Solving for p, Initial residual = 1.95186e-05, Final residual = 4.44569e-07, No Iterations 2
time step continuity errors : sum local = 8.74783e-06, global = -2.39236e-07, cumulative = -0.854348
smoothSolver:  Solving for omega, Initial residual = 1.30285e-06, Final residual = 5.75894e-07, No Iterations 1
smoothSolver:  Solving for k, Initial residual = 3.33387e-06, Final residual = 7.29408e-07, No Iterations 2
ExecutionTime = 153.99 s  ClockTime = 154 s

Time = 463

smoothSolver:  Solving for Ux, Initial residual = 6.75093e-05, Final residual = 4.59136e-06, No Iterations 3
smoothSolver:  Solving for Uy, Initial residual = 0.000126218, Final residual = 8.23317e-06, No Iterations 3
smoothSolver:  Solving for Uz, Initial residual = 2.1308e-06, Final residual = 9.21284e-07, No Iterations 1
GAMG:  Solving for p, Initial residual = 1.94597e-05, Final residual = 4.42881e-07, No Iterations 2
time step continuity errors : sum local = 8.71452e-06, global = -2.3907e-07, cumulative = -0.854348
smoothSolver:  Solving for omega, Initial residual = 1.29678e-06, Final residual = 5.73386e-07, No Iterations 1
smoothSolver:  Solving for k, Initial residual = 3.31055e-06, Final residual = 7.24584e-07, No Iterations 2
ExecutionTime = 154.31 s  ClockTime = 155 s

Time = 464

smoothSolver:  Solving for Ux, Initial residual = 6.67484e-05, Final residual = 4.5586e-06, No Iterations 3
smoothSolver:  Solving for Uy, Initial residual = 0.000124747, Final residual = 8.17958e-06, No Iterations 3
smoothSolver:  Solving for Uz, Initial residual = 2.11685e-06, Final residual = 9.15915e-07, No Iterations 1
GAMG:  Solving for p, Initial residual = 1.93851e-05, Final residual = 4.4053e-07, No Iterations 2
time step continuity errors : sum local = 8.66818e-06, global = -2.33345e-07, cumulative = -0.854348
smoothSolver:  Solving for omega, Initial residual = 1.29108e-06, Final residual = 5.71261e-07, No Iterations 1
smoothSolver:  Solving for k, Initial residual = 3.28755e-06, Final residual = 7.19855e-07, No Iterations 2
ExecutionTime = 154.61 s  ClockTime = 155 s

Time = 465

smoothSolver:  Solving for Ux, Initial residual = 6.60062e-05, Final residual = 4.52819e-06, No Iterations 3
smoothSolver:  Solving for Uy, Initial residual = 0.000123295, Final residual = 8.12844e-06, No Iterations 3
smoothSolver:  Solving for Uz, Initial residual = 2.10253e-06, Final residual = 9.10512e-07, No Iterations 1
GAMG:  Solving for p, Initial residual = 1.92904e-05, Final residual = 4.37911e-07, No Iterations 2
time step continuity errors : sum local = 8.61654e-06, global = -2.18364e-07, cumulative = -0.854348
smoothSolver:  Solving for omega, Initial residual = 1.28582e-06, Final residual = 5.69399e-07, No Iterations 1
smoothSolver:  Solving for k, Initial residual = 3.2649e-06, Final residual = 7.15218e-07, No Iterations 2
ExecutionTime = 154.91 s  ClockTime = 155 s

Time = 466

smoothSolver:  Solving for Ux, Initial residual = 6.52744e-05, Final residual = 4.49945e-06, No Iterations 3
smoothSolver:  Solving for Uy, Initial residual = 0.000121853, Final residual = 8.07889e-06, No Iterations 3
smoothSolver:  Solving for Uz, Initial residual = 2.08781e-06, Final residual = 9.05238e-07, No Iterations 1
GAMG:  Solving for p, Initial residual = 1.91951e-05, Final residual = 4.35934e-07, No Iterations 2
time step continuity errors : sum local = 8.57756e-06, global = -1.98167e-07, cumulative = -0.854348
smoothSolver:  Solving for omega, Initial residual = 1.2808e-06, Final residual = 5.6762e-07, No Iterations 1
smoothSolver:  Solving for k, Initial residual = 3.24269e-06, Final residual = 7.10693e-07, No Iterations 2
ExecutionTime = 155.22 s  ClockTime = 155 s

Time = 467

smoothSolver:  Solving for Ux, Initial residual = 6.45494e-05, Final residual = 4.47138e-06, No Iterations 3
smoothSolver:  Solving for Uy, Initial residual = 0.000120424, Final residual = 8.02894e-06, No Iterations 3
smoothSolver:  Solving for Uz, Initial residual = 2.07311e-06, Final residual = 8.99878e-07, No Iterations 1
GAMG:  Solving for p, Initial residual = 1.90854e-05, Final residual = 4.34695e-07, No Iterations 2
time step continuity errors : sum local = 8.55309e-06, global = -1.79376e-07, cumulative = -0.854349
smoothSolver:  Solving for omega, Initial residual = 1.27625e-06, Final residual = 5.66028e-07, No Iterations 1
smoothSolver:  Solving for k, Initial residual = 3.22097e-06, Final residual = 7.06264e-07, No Iterations 2
ExecutionTime = 155.51 s  ClockTime = 156 s

Time = 468

smoothSolver:  Solving for Ux, Initial residual = 6.38177e-05, Final residual = 4.44419e-06, No Iterations 3
smoothSolver:  Solving for Uy, Initial residual = 0.000118975, Final residual = 7.97604e-06, No Iterations 3
smoothSolver:  Solving for Uz, Initial residual = 2.05818e-06, Final residual = 8.9442e-07, No Iterations 1
GAMG:  Solving for p, Initial residual = 1.89748e-05, Final residual = 4.34155e-07, No Iterations 2
time step continuity errors : sum local = 8.54239e-06, global = -1.66941e-07, cumulative = -0.854349
smoothSolver:  Solving for omega, Initial residual = 1.27205e-06, Final residual = 5.64667e-07, No Iterations 1
smoothSolver:  Solving for k, Initial residual = 3.1997e-06, Final residual = 7.01935e-07, No Iterations 2
ExecutionTime = 155.83 s  ClockTime = 156 s

Time = 469

smoothSolver:  Solving for Ux, Initial residual = 6.30828e-05, Final residual = 4.41687e-06, No Iterations 3
smoothSolver:  Solving for Uy, Initial residual = 0.000117532, Final residual = 7.92303e-06, No Iterations 3
smoothSolver:  Solving for Uz, Initial residual = 2.0432e-06, Final residual = 8.88907e-07, No Iterations 1
GAMG:  Solving for p, Initial residual = 1.88588e-05, Final residual = 4.34271e-07, No Iterations 2
time step continuity errors : sum local = 8.5446e-06, global = -1.61893e-07, cumulative = -0.854349
smoothSolver:  Solving for omega, Initial residual = 1.26805e-06, Final residual = 5.63288e-07, No Iterations 1
smoothSolver:  Solving for k, Initial residual = 3.17888e-06, Final residual = 6.97686e-07, No Iterations 2
ExecutionTime = 156.11 s  ClockTime = 156 s

Time = 470

smoothSolver:  Solving for Ux, Initial residual = 6.2335e-05, Final residual = 4.39179e-06, No Iterations 3
smoothSolver:  Solving for Uy, Initial residual = 0.000116104, Final residual = 7.87159e-06, No Iterations 3
smoothSolver:  Solving for Uz, Initial residual = 2.02774e-06, Final residual = 8.83269e-07, No Iterations 1
GAMG:  Solving for p, Initial residual = 1.87353e-05, Final residual = 4.34664e-07, No Iterations 2
time step continuity errors : sum local = 8.55226e-06, global = -1.62485e-07, cumulative = -0.854349
smoothSolver:  Solving for omega, Initial residual = 1.26356e-06, Final residual = 5.61658e-07, No Iterations 1
smoothSolver:  Solving for k, Initial residual = 3.15854e-06, Final residual = 6.93519e-07, No Iterations 2
ExecutionTime = 156.42 s  ClockTime = 157 s

Time = 471

smoothSolver:  Solving for Ux, Initial residual = 6.16217e-05, Final residual = 4.37134e-06, No Iterations 3
smoothSolver:  Solving for Uy, Initial residual = 0.000114714, Final residual = 7.82715e-06, No Iterations 3
smoothSolver:  Solving for Uz, Initial residual = 2.01198e-06, Final residual = 8.77673e-07, No Iterations 1
GAMG:  Solving for p, Initial residual = 1.86192e-05, Final residual = 4.34938e-07, No Iterations 2
time step continuity errors : sum local = 8.55757e-06, global = -1.71355e-07, cumulative = -0.854349
smoothSolver:  Solving for omega, Initial residual = 1.25861e-06, Final residual = 5.59803e-07, No Iterations 1
smoothSolver:  Solving for k, Initial residual = 3.13867e-06, Final residual = 6.89463e-07, No Iterations 2
ExecutionTime = 156.74 s  ClockTime = 157 s

Time = 472

smoothSolver:  Solving for Ux, Initial residual = 6.09616e-05, Final residual = 4.35419e-06, No Iterations 3
smoothSolver:  Solving for Uy, Initial residual = 0.00011338, Final residual = 7.79251e-06, No Iterations 3
smoothSolver:  Solving for Uz, Initial residual = 1.99641e-06, Final residual = 8.72217e-07, No Iterations 1
GAMG:  Solving for p, Initial residual = 1.84661e-05, Final residual = 4.3457e-07, No Iterations 2
time step continuity errors : sum local = 8.55026e-06, global = -1.83265e-07, cumulative = -0.854349
smoothSolver:  Solving for omega, Initial residual = 1.25326e-06, Final residual = 5.57921e-07, No Iterations 1
smoothSolver:  Solving for k, Initial residual = 3.11925e-06, Final residual = 6.8552e-07, No Iterations 2
ExecutionTime = 157.06 s  ClockTime = 157 s

Time = 473

smoothSolver:  Solving for Ux, Initial residual = 6.03415e-05, Final residual = 4.34136e-06, No Iterations 3
smoothSolver:  Solving for Uy, Initial residual = 0.000112099, Final residual = 7.7676e-06, No Iterations 3
smoothSolver:  Solving for Uz, Initial residual = 1.98087e-06, Final residual = 8.66796e-07, No Iterations 1
GAMG:  Solving for p, Initial residual = 1.82889e-05, Final residual = 4.3304e-07, No Iterations 2
time step continuity errors : sum local = 8.5201e-06, global = -1.94685e-07, cumulative = -0.85435
smoothSolver:  Solving for omega, Initial residual = 1.24791e-06, Final residual = 5.55794e-07, No Iterations 1
smoothSolver:  Solving for k, Initial residual = 3.10034e-06, Final residual = 6.817e-07, No Iterations 2
ExecutionTime = 157.38 s  ClockTime = 158 s

Time = 474

smoothSolver:  Solving for Ux, Initial residual = 5.97532e-05, Final residual = 4.33615e-06, No Iterations 3
smoothSolver:  Solving for Uy, Initial residual = 0.000110847, Final residual = 7.74869e-06, No Iterations 3
smoothSolver:  Solving for Uz, Initial residual = 1.96568e-06, Final residual = 8.61508e-07, No Iterations 1
GAMG:  Solving for p, Initial residual = 1.81106e-05, Final residual = 4.30515e-07, No Iterations 2
time step continuity errors : sum local = 8.47035e-06, global = -2.14189e-07, cumulative = -0.85435
smoothSolver:  Solving for omega, Initial residual = 1.24312e-06, Final residual = 5.53675e-07, No Iterations 1
smoothSolver:  Solving for k, Initial residual = 3.08198e-06, Final residual = 6.77975e-07, No Iterations 2
ExecutionTime = 157.69 s  ClockTime = 158 s

Time = 475

smoothSolver:  Solving for Ux, Initial residual = 5.91794e-05, Final residual = 4.33025e-06, No Iterations 3
smoothSolver:  Solving for Uy, Initial residual = 0.000109604, Final residual = 7.72769e-06, No Iterations 3
smoothSolver:  Solving for Uz, Initial residual = 1.95037e-06, Final residual = 8.56415e-07, No Iterations 1
GAMG:  Solving for p, Initial residual = 1.79497e-05, Final residual = 4.27256e-07, No Iterations 2
time step continuity errors : sum local = 8.40616e-06, global = -2.26945e-07, cumulative = -0.85435
smoothSolver:  Solving for omega, Initial residual = 1.23813e-06, Final residual = 5.51534e-07, No Iterations 1
smoothSolver:  Solving for k, Initial residual = 3.06417e-06, Final residual = 6.74373e-07, No Iterations 2
ExecutionTime = 157.98 s  ClockTime = 158 s

Time = 476

smoothSolver:  Solving for Ux, Initial residual = 5.85994e-05, Final residual = 4.32583e-06, No Iterations 3
smoothSolver:  Solving for Uy, Initial residual = 0.000108324, Final residual = 7.70072e-06, No Iterations 3
smoothSolver:  Solving for Uz, Initial residual = 1.93542e-06, Final residual = 8.51307e-07, No Iterations 1
GAMG:  Solving for p, Initial residual = 1.7795e-05, Final residual = 4.23077e-07, No Iterations 2
time step continuity errors : sum local = 8.32386e-06, global = -2.27763e-07, cumulative = -0.85435
smoothSolver:  Solving for omega, Initial residual = 1.23255e-06, Final residual = 5.49162e-07, No Iterations 1
smoothSolver:  Solving for k, Initial residual = 3.04694e-06, Final residual = 6.70911e-07, No Iterations 2
ExecutionTime = 158.3 s  ClockTime = 159 s

Time = 477

smoothSolver:  Solving for Ux, Initial residual = 5.80318e-05, Final residual = 4.3195e-06, No Iterations 3
smoothSolver:  Solving for Uy, Initial residual = 0.000107007, Final residual = 7.66698e-06, No Iterations 3
smoothSolver:  Solving for Uz, Initial residual = 1.92054e-06, Final residual = 8.46451e-07, No Iterations 1
GAMG:  Solving for p, Initial residual = 1.76838e-05, Final residual = 4.18983e-07, No Iterations 2
time step continuity errors : sum local = 8.24326e-06, global = -2.08023e-07, cumulative = -0.854351
smoothSolver:  Solving for omega, Initial residual = 1.22711e-06, Final residual = 5.46831e-07, No Iterations 1
smoothSolver:  Solving for k, Initial residual = 3.03029e-06, Final residual = 6.67596e-07, No Iterations 2
ExecutionTime = 158.6 s  ClockTime = 159 s

Time = 478

smoothSolver:  Solving for Ux, Initial residual = 5.74754e-05, Final residual = 4.31066e-06, No Iterations 3
smoothSolver:  Solving for Uy, Initial residual = 0.000105617, Final residual = 7.61626e-06, No Iterations 3
smoothSolver:  Solving for Uz, Initial residual = 1.90536e-06, Final residual = 8.41483e-07, No Iterations 1
GAMG:  Solving for p, Initial residual = 1.75469e-05, Final residual = 4.15344e-07, No Iterations 2
time step continuity errors : sum local = 8.17158e-06, global = -1.72965e-07, cumulative = -0.854351
smoothSolver:  Solving for omega, Initial residual = 1.22243e-06, Final residual = 5.45077e-07, No Iterations 1
smoothSolver:  Solving for k, Initial residual = 3.01422e-06, Final residual = 6.64409e-07, No Iterations 2
ExecutionTime = 158.9 s  ClockTime = 159 s

Time = 479

smoothSolver:  Solving for Ux, Initial residual = 5.69092e-05, Final residual = 4.30063e-06, No Iterations 3
smoothSolver:  Solving for Uy, Initial residual = 0.000104147, Final residual = 7.55083e-06, No Iterations 3
smoothSolver:  Solving for Uz, Initial residual = 1.88967e-06, Final residual = 8.36331e-07, No Iterations 1
GAMG:  Solving for p, Initial residual = 1.7387e-05, Final residual = 4.12411e-07, No Iterations 2
time step continuity errors : sum local = 8.11379e-06, global = -1.393e-07, cumulative = -0.854351
smoothSolver:  Solving for omega, Initial residual = 1.21821e-06, Final residual = 5.4372e-07, No Iterations 1
smoothSolver:  Solving for k, Initial residual = 2.9987e-06, Final residual = 6.61339e-07, No Iterations 2
ExecutionTime = 159.22 s  ClockTime = 159 s

Time = 480

smoothSolver:  Solving for Ux, Initial residual = 5.63258e-05, Final residual = 4.28592e-06, No Iterations 3
smoothSolver:  Solving for Uy, Initial residual = 0.000102685, Final residual = 7.47733e-06, No Iterations 3
smoothSolver:  Solving for Uz, Initial residual = 1.87418e-06, Final residual = 8.31232e-07, No Iterations 1
GAMG:  Solving for p, Initial residual = 1.71551e-05, Final residual = 4.10127e-07, No Iterations 2
time step continuity errors : sum local = 8.06878e-06, global = -1.11904e-07, cumulative = -0.854351
smoothSolver:  Solving for omega, Initial residual = 1.21467e-06, Final residual = 5.43019e-07, No Iterations 1
smoothSolver:  Solving for k, Initial residual = 2.98367e-06, Final residual = 6.58397e-07, No Iterations 2
ExecutionTime = 159.54 s  ClockTime = 160 s

Time = 481

smoothSolver:  Solving for Ux, Initial residual = 5.5755e-05, Final residual = 4.27176e-06, No Iterations 3
smoothSolver:  Solving for Uy, Initial residual = 0.000101275, Final residual = 7.40991e-06, No Iterations 3
smoothSolver:  Solving for Uz, Initial residual = 1.85901e-06, Final residual = 8.2618e-07, No Iterations 1
GAMG:  Solving for p, Initial residual = 1.6953e-05, Final residual = 4.09201e-07, No Iterations 2
time step continuity errors : sum local = 8.0505e-06, global = -8.43517e-08, cumulative = -0.854351
smoothSolver:  Solving for omega, Initial residual = 1.21159e-06, Final residual = 5.42692e-07, No Iterations 1
smoothSolver:  Solving for k, Initial residual = 2.96911e-06, Final residual = 6.55589e-07, No Iterations 2
ExecutionTime = 159.84 s  ClockTime = 160 s

Time = 482

smoothSolver:  Solving for Ux, Initial residual = 5.51793e-05, Final residual = 4.25214e-06, No Iterations 3
smoothSolver:  Solving for Uy, Initial residual = 9.99167e-05, Final residual = 7.34339e-06, No Iterations 3
smoothSolver:  Solving for Uz, Initial residual = 1.8436e-06, Final residual = 8.21011e-07, No Iterations 1
GAMG:  Solving for p, Initial residual = 1.66819e-05, Final residual = 4.08118e-07, No Iterations 2
time step continuity errors : sum local = 8.02914e-06, global = -7.72536e-08, cumulative = -0.854351
smoothSolver:  Solving for omega, Initial residual = 1.20933e-06, Final residual = 5.4253e-07, No Iterations 1
smoothSolver:  Solving for k, Initial residual = 2.95503e-06, Final residual = 6.52897e-07, No Iterations 2
ExecutionTime = 160.16 s  ClockTime = 160 s


SIMPLE solution converged in 482 iterations

End

Finalising parallel run
