/*---------------------------------------------------------------------------*\
| =========                 |                                                 |
| \\      /  F ield         | OpenFOAM: The Open Source CFD Toolbox           |
|  \\    /   O peration     | Version:  2412                                  |
|   \\  /    A nd           | Website:  www.openfoam.com                      |
|    \\/     M anipulation  |                                                 |
\*---------------------------------------------------------------------------*/
Build  : _e5c6ccc3-20250814 OPENFOAM=2412 patch=250814 version=2412
Arch   : "LSB;label=32;scalar=64"
Exec   : rhoCentralFoam -parallel
Date   : Jan 05 2026
Time   : 20:32:46
Host   : LAPTOP-FVD4ED85
PID    : 2688
I/O    : uncollated
Case   : /home/ericy/Rocket_CFD_ML/openfoam/combined_test_workflow
nProcs : 4
Hosts  :
(
    (LAPTOP-FVD4ED85 4)
)
Pstream initialized with:
    floatTransfer      : false
    maxCommsSize       : 0
    nProcsSimpleSum    : 0
    nonBlockingExchange: 0 (tuning: 0)
    exchange algorithm : 0
    commsType          : nonBlocking
    polling iterations : 0
trapFpe: Floating point exception trapping enabled (FOAM_SIGFPE).
fileModificationChecking : Monitoring run-time modified files using timeStampMaster (fileModificationSkew 5, maxFileModificationPolls 20)
allowSystemOperations : Allowing user-supplied system call operations

// * * * * * * * * * * * * * * * * * * * * * * * * * * * * * * * * * * * * * //
Create time

Create mesh for time = 0

Reading thermophysical properties

Selecting thermodynamics package 
{
    type            hePsiThermo;
    mixture         pureMixture;
    transport       sutherland;
    thermo          hConst;
    equationOfState perfectGas;
    specie          specie;
    energy          sensibleInternalEnergy;
}

Reading field U

Creating turbulence model

Selecting turbulence model type RAS
Selecting RAS turbulence model kOmegaSST
Selecting patchDistMethod meshWave
RAS
{
    model           kOmegaSST;
    turbulence      on;
    printCoeffs     on;
    alphaK1         0.85;
    alphaK2         1;
    alphaOmega1     0.5;
    alphaOmega2     0.856;
    gamma1          0.555556;
    gamma2          0.44;
    beta1           0.075;
    beta2           0.0828;
    betaStar        0.09;
    a1              0.31;
    b1              1;
    c1              10;
    F3              false;
    decayControl    false;
    kInf            0;
    omegaInf        0;
}

Creating finite volume options from "system/fvOptions"

Selecting finite volume options type limitTemperature
    Source: limitT
    - selecting all cells
    - selected 124215 cell(s) with volume 324964

Starting time loop

forceCoeffs forces:
    p: p
    U: U
    rho: rho
    Not including porosity effects
    magUInf: 500
    lRef   : 1
    Aref   : 3.14
    rhoInf : 1.225
    Selecting all coefficients
    - Drag force: Cd
    - Drag force front: Cd(f)
    - Drag force rear: Cd(r)
    - Lift force: Cl
    - Lift force front: Cl(f)
    - Lift force rear: Cl(r)
    - Pitch moment: CmPitch
    - Roll moment: CmRoll
    - Yaw moment: CmYaw
    - Side force: Cs
    - Side force front: Cs(f)
    - Side force rear: Cs(r)


deltaT = 1.2e-06
Mean and max Courant Numbers = 0.00024586 0.0181197
Time = 1.2e-06

diagonal:  Solving for rho, Initial residual = 0, Final residual = 0, No Iterations 0
diagonal:  Solving for rhoUx, Initial residual = 0, Final residual = 0, No Iterations 0
diagonal:  Solving for rhoUy, Initial residual = 0, Final residual = 0, No Iterations 0
diagonal:  Solving for rhoUz, Initial residual = 0, Final residual = 0, No Iterations 0
smoothSolver:  Solving for Ux, Initial residual = 1.24908e-06, Final residual = 2.63995e-11, No Iterations 1
smoothSolver:  Solving for Uy, Initial residual = 1.32376e-06, Final residual = 2.79177e-11, No Iterations 1
smoothSolver:  Solving for Uz, Initial residual = 7.3142e-05, Final residual = 2.66905e-12, No Iterations 1
diagonal:  Solving for rhoE, Initial residual = 0, Final residual = 0, No Iterations 0
smoothSolver:  Solving for e, Initial residual = 2.83778e-08, Final residual = 2.83778e-08, No Iterations 0
smoothSolver:  Solving for omega, Initial residual = 1.08277e-06, Final residual = 4.03142e-14, No Iterations 1
smoothSolver:  Solving for k, Initial residual = 1, Final residual = 3.69432e-08, No Iterations 1
ExecutionTime = 0.44 s  ClockTime = 1 s

deltaT = 1.43998e-06
Mean and max Courant Numbers = 0.000295028 0.0217432
Time = 2.63998e-06

diagonal:  Solving for rho, Initial residual = 0, Final residual = 0, No Iterations 0
diagonal:  Solving for rhoUx, Initial residual = 0, Final residual = 0, No Iterations 0
diagonal:  Solving for rhoUy, Initial residual = 0, Final residual = 0, No Iterations 0
diagonal:  Solving for rhoUz, Initial residual = 0, Final residual = 0, No Iterations 0
smoothSolver:  Solving for Ux, Initial residual = 7.33825e-08, Final residual = 7.33825e-08, No Iterations 0
smoothSolver:  Solving for Uy, Initial residual = 7.33825e-08, Final residual = 7.33825e-08, No Iterations 0
smoothSolver:  Solving for Uz, Initial residual = 3.99099e-05, Final residual = 1.74753e-12, No Iterations 1
diagonal:  Solving for rhoE, Initial residual = 0, Final residual = 0, No Iterations 0
smoothSolver:  Solving for e, Initial residual = 3.40594e-08, Final residual = 3.40594e-08, No Iterations 0
--> FOAM Warning : 
    From virtual void Foam::fv::option::checkApplied() const
    in file cfdTools/general/fvOptions/fvOption.C at line 137
    Source limitT defined for field e but never used
--> FOAM Warning : 
    From virtual void Foam::fv::option::checkApplied() const
    in file cfdTools/general/fvOptions/fvOption.C at line 137
    Source limitT defined for field e but never used
smoothSolver:  Solving for omega, Initial residual = 1.29868e-06, Final residual = 4.81875e-14, No Iterations 1
--> FOAM Warning : 
    From virtual void Foam::fv::option::checkApplied() const
    in file cfdTools/general/fvOptions/fvOption.C at line 137
    Source limitT defined for field e but never used
--> FOAM Warning : 
    From virtual void Foam::fv::option::checkApplied() const
    in file cfdTools/general/fvOptions/fvOption.C at line 137
    Source limitT defined for field e but never used
smoothSolver:  Solving for k, Initial residual = 0.495007, Final residual = 2.0685e-08, No Iterations 1
ExecutionTime = 0.65 s  ClockTime = 1 s

deltaT = 1.72801e-06
Mean and max Courant Numbers = 0.00035404 0.0260924
Time = 4.36798e-06

diagonal:  Solving for rho, Initial residual = 0, Final residual = 0, No Iterations 0
diagonal:  Solving for rhoUx, Initial residual = 0, Final residual = 0, No Iterations 0
diagonal:  Solving for rhoUy, Initial residual = 0, Final residual = 0, No Iterations 0
diagonal:  Solving for rhoUz, Initial residual = 0, Final residual = 0, No Iterations 0
smoothSolver:  Solving for Ux, Initial residual = 9.06052e-08, Final residual = 9.06052e-08, No Iterations 0
smoothSolver:  Solving for Uy, Initial residual = 9.06052e-08, Final residual = 9.06052e-08, No Iterations 0
smoothSolver:  Solving for Uz, Initial residual = 2.89577e-05, Final residual = 1.52169e-12, No Iterations 1
diagonal:  Solving for rhoE, Initial residual = 0, Final residual = 0, No Iterations 0
smoothSolver:  Solving for e, Initial residual = 4.08758e-08, Final residual = 4.08758e-08, No Iterations 0
smoothSolver:  Solving for omega, Initial residual = 1.55887e-06, Final residual = 6.93662e-14, No Iterations 1
smoothSolver:  Solving for k, Initial residual = 0.283692, Final residual = 1.42173e-08, No Iterations 1
ExecutionTime = 0.86 s  ClockTime = 1 s

deltaT = 2.07351e-06
Mean and max Courant Numbers = 0.000424828 0.0313094
Time = 6.44149e-06

diagonal:  Solving for rho, Initial residual = 0, Final residual = 0, No Iterations 0
diagonal:  Solving for rhoUx, Initial residual = 0, Final residual = 0, No Iterations 0
diagonal:  Solving for rhoUy, Initial residual = 0, Final residual = 0, No Iterations 0
diagonal:  Solving for rhoUz, Initial residual = 0, Final residual = 0, No Iterations 0
smoothSolver:  Solving for Ux, Initial residual = 1.10233e-07, Final residual = 1.10233e-07, No Iterations 0
smoothSolver:  Solving for Uy, Initial residual = 1.10233e-07, Final residual = 1.10233e-07, No Iterations 0
smoothSolver:  Solving for Uz, Initial residual = 2.35735e-05, Final residual = 1.48618e-12, No Iterations 1
diagonal:  Solving for rhoE, Initial residual = 0, Final residual = 0, No Iterations 0
smoothSolver:  Solving for e, Initial residual = 4.90589e-08, Final residual = 4.90589e-08, No Iterations 0
smoothSolver:  Solving for omega, Initial residual = 1.87115e-06, Final residual = 9.98318e-14, No Iterations 1
smoothSolver:  Solving for k, Initial residual = 0.208735, Final residual = 1.25372e-08, No Iterations 1
ExecutionTime = 1.06 s  ClockTime = 1 s

deltaT = 2.48814e-06
Mean and max Courant Numbers = 0.000509779 0.0375703
Time = 8.92964e-06

diagonal:  Solving for rho, Initial residual = 0, Final residual = 0, No Iterations 0
diagonal:  Solving for rhoUx, Initial residual = 0, Final residual = 0, No Iterations 0
diagonal:  Solving for rhoUy, Initial residual = 0, Final residual = 0, No Iterations 0
diagonal:  Solving for rhoUz, Initial residual = 0, Final residual = 0, No Iterations 0
smoothSolver:  Solving for Ux, Initial residual = 1.33355e-07, Final residual = 1.33355e-07, No Iterations 0
smoothSolver:  Solving for Uy, Initial residual = 1.33355e-07, Final residual = 1.33355e-07, No Iterations 0
smoothSolver:  Solving for Uz, Initial residual = 2.0417e-05, Final residual = 1.54458e-12, No Iterations 1
diagonal:  Solving for rhoE, Initial residual = 0, Final residual = 0, No Iterations 0
smoothSolver:  Solving for e, Initial residual = 5.88831e-08, Final residual = 5.88831e-08, No Iterations 0
smoothSolver:  Solving for omega, Initial residual = 2.24619e-06, Final residual = 1.4368e-13, No Iterations 1
smoothSolver:  Solving for k, Initial residual = 0.171117, Final residual = 1.23162e-08, No Iterations 1
ExecutionTime = 1.26 s  ClockTime = 1 s

deltaT = 2.98567e-06
Mean and max Courant Numbers = 0.000611714 0.0450828
Time = 1.19153e-05

diagonal:  Solving for rho, Initial residual = 0, Final residual = 0, No Iterations 0
diagonal:  Solving for rhoUx, Initial residual = 0, Final residual = 0, No Iterations 0
diagonal:  Solving for rhoUy, Initial residual = 0, Final residual = 0, No Iterations 0
diagonal:  Solving for rhoUz, Initial residual = 0, Final residual = 0, No Iterations 0
smoothSolver:  Solving for Ux, Initial residual = 1.60877e-07, Final residual = 1.60877e-07, No Iterations 0
smoothSolver:  Solving for Uy, Initial residual = 1.60877e-07, Final residual = 1.60877e-07, No Iterations 0
smoothSolver:  Solving for Uz, Initial residual = 1.83729e-05, Final residual = 1.66771e-12, No Iterations 1
diagonal:  Solving for rhoE, Initial residual = 0, Final residual = 0, No Iterations 0
smoothSolver:  Solving for e, Initial residual = 7.06783e-08, Final residual = 7.06783e-08, No Iterations 0
smoothSolver:  Solving for omega, Initial residual = 2.69658e-06, Final residual = 2.06765e-13, No Iterations 1
smoothSolver:  Solving for k, Initial residual = 0.148814, Final residual = 1.28321e-08, No Iterations 1
ExecutionTime = 1.48 s  ClockTime = 2 s

deltaT = 3.58309e-06
Mean and max Courant Numbers = 0.000734114 0.0541037
Time = 1.54984e-05

diagonal:  Solving for rho, Initial residual = 0, Final residual = 0, No Iterations 0
diagonal:  Solving for rhoUx, Initial residual = 0, Final residual = 0, No Iterations 0
diagonal:  Solving for rhoUy, Initial residual = 0, Final residual = 0, No Iterations 0
diagonal:  Solving for rhoUz, Initial residual = 0, Final residual = 0, No Iterations 0
smoothSolver:  Solving for Ux, Initial residual = 1.93801e-07, Final residual = 1.93801e-07, No Iterations 0
smoothSolver:  Solving for Uy, Initial residual = 1.93801e-07, Final residual = 1.93801e-07, No Iterations 0
smoothSolver:  Solving for Uz, Initial residual = 1.69654e-05, Final residual = 1.84785e-12, No Iterations 1
diagonal:  Solving for rhoE, Initial residual = 0, Final residual = 0, No Iterations 0
smoothSolver:  Solving for e, Initial residual = 8.48508e-08, Final residual = 8.48508e-08, No Iterations 0
smoothSolver:  Solving for omega, Initial residual = 3.23795e-06, Final residual = 2.97601e-13, No Iterations 1
smoothSolver:  Solving for k, Initial residual = 0.134289, Final residual = 1.387e-08, No Iterations 1
ExecutionTime = 1.7 s  ClockTime = 2 s

deltaT = 4.2449e-06
Mean and max Courant Numbers = 0.000869705 0.0640968
Time = 1.97433e-05

diagonal:  Solving for rho, Initial residual = 0, Final residual = 0, No Iterations 0
diagonal:  Solving for rhoUx, Initial residual = 0, Final residual = 0, No Iterations 0
diagonal:  Solving for rhoUy, Initial residual = 0, Final residual = 0, No Iterations 0
diagonal:  Solving for rhoUz, Initial residual = 0, Final residual = 0, No Iterations 0
smoothSolver:  Solving for Ux, Initial residual = 2.30322e-07, Final residual = 2.30322e-07, No Iterations 0
smoothSolver:  Solving for Uy, Initial residual = 2.30322e-07, Final residual = 2.30322e-07, No Iterations 0
smoothSolver:  Solving for Uz, Initial residual = 1.57926e-05, Final residual = 2.0376e-12, No Iterations 1
diagonal:  Solving for rhoE, Initial residual = 0, Final residual = 0, No Iterations 0
smoothSolver:  Solving for e, Initial residual = 1.00566e-07, Final residual = 1.00566e-07, No Iterations 0
smoothSolver:  Solving for omega, Initial residual = 3.83855e-06, Final residual = 4.17392e-13, No Iterations 1
smoothSolver:  Solving for k, Initial residual = 0.122671, Final residual = 1.49768e-08, No Iterations 1
ExecutionTime = 1.9 s  ClockTime = 2 s

deltaT = 4.90673e-06
Mean and max Courant Numbers = 0.0010053 0.0740903
Time = 2.465e-05

diagonal:  Solving for rho, Initial residual = 0, Final residual = 0, No Iterations 0
diagonal:  Solving for rhoUx, Initial residual = 0, Final residual = 0, No Iterations 0
diagonal:  Solving for rhoUy, Initial residual = 0, Final residual = 0, No Iterations 0
diagonal:  Solving for rhoUz, Initial residual = 0, Final residual = 0, No Iterations 0
smoothSolver:  Solving for Ux, Initial residual = 2.67047e-07, Final residual = 2.67047e-07, No Iterations 0
smoothSolver:  Solving for Uy, Initial residual = 2.67047e-07, Final residual = 2.67047e-07, No Iterations 0
smoothSolver:  Solving for Uz, Initial residual = 1.46374e-05, Final residual = 2.18264e-12, No Iterations 1
diagonal:  Solving for rhoE, Initial residual = 0, Final residual = 0, No Iterations 0
smoothSolver:  Solving for e, Initial residual = 1.16302e-07, Final residual = 1.16302e-07, No Iterations 0
smoothSolver:  Solving for omega, Initial residual = 4.44048e-06, Final residual = 5.57272e-13, No Iterations 1
smoothSolver:  Solving for k, Initial residual = 0.11164, Final residual = 1.57144e-08, No Iterations 1
ExecutionTime = 2.13 s  ClockTime = 2 s

deltaT = 5.56911e-06
Mean and max Courant Numbers = 0.00114101 0.0840921
Time = 3.02192e-05

diagonal:  Solving for rho, Initial residual = 0, Final residual = 0, No Iterations 0
diagonal:  Solving for rhoUx, Initial residual = 0, Final residual = 0, No Iterations 0
diagonal:  Solving for rhoUy, Initial residual = 0, Final residual = 0, No Iterations 0
diagonal:  Solving for rhoUz, Initial residual = 0, Final residual = 0, No Iterations 0
smoothSolver:  Solving for Ux, Initial residual = 3.03972e-07, Final residual = 3.03972e-07, No Iterations 0
smoothSolver:  Solving for Uy, Initial residual = 3.03972e-07, Final residual = 3.03972e-07, No Iterations 0
smoothSolver:  Solving for Uz, Initial residual = 1.35688e-05, Final residual = 2.29595e-12, No Iterations 1
diagonal:  Solving for rhoE, Initial residual = 0, Final residual = 0, No Iterations 0
smoothSolver:  Solving for e, Initial residual = 1.32075e-07, Final residual = 1.32075e-07, No Iterations 0
smoothSolver:  Solving for omega, Initial residual = 5.04443e-06, Final residual = 7.17343e-13, No Iterations 1
smoothSolver:  Solving for k, Initial residual = 0.101779, Final residual = 1.62135e-08, No Iterations 1
ExecutionTime = 2.36 s  ClockTime = 2 s

deltaT = 6.23222e-06
Mean and max Courant Numbers = 0.00127686 0.0941047
Time = 3.64514e-05

diagonal:  Solving for rho, Initial residual = 0, Final residual = 0, No Iterations 0
diagonal:  Solving for rhoUx, Initial residual = 0, Final residual = 0, No Iterations 0
diagonal:  Solving for rhoUy, Initial residual = 0, Final residual = 0, No Iterations 0
diagonal:  Solving for rhoUz, Initial residual = 0, Final residual = 0, No Iterations 0
smoothSolver:  Solving for Ux, Initial residual = 3.41085e-07, Final residual = 3.41085e-07, No Iterations 0
smoothSolver:  Solving for Uy, Initial residual = 3.41085e-07, Final residual = 3.41085e-07, No Iterations 0
smoothSolver:  Solving for Uz, Initial residual = 1.2606e-05, Final residual = 2.38657e-12, No Iterations 1
diagonal:  Solving for rhoE, Initial residual = 0, Final residual = 0, No Iterations 0
smoothSolver:  Solving for e, Initial residual = 1.47892e-07, Final residual = 1.47892e-07, No Iterations 0
smoothSolver:  Solving for omega, Initial residual = 5.65077e-06, Final residual = 8.97713e-13, No Iterations 1
smoothSolver:  Solving for k, Initial residual = 0.0931649, Final residual = 1.65558e-08, No Iterations 1
ExecutionTime = 2.57 s  ClockTime = 3 s

deltaT = 6.62397e-06
Mean and max Courant Numbers = 0.00135712 0.10002
Time = 4.30753e-05

diagonal:  Solving for rho, Initial residual = 0, Final residual = 0, No Iterations 0
diagonal:  Solving for rhoUx, Initial residual = 0, Final residual = 0, No Iterations 0
diagonal:  Solving for rhoUy, Initial residual = 0, Final residual = 0, No Iterations 0
diagonal:  Solving for rhoUz, Initial residual = 0, Final residual = 0, No Iterations 0
smoothSolver:  Solving for Ux, Initial residual = 3.63728e-07, Final residual = 3.63728e-07, No Iterations 0
smoothSolver:  Solving for Uy, Initial residual = 3.63728e-07, Final residual = 3.63728e-07, No Iterations 0
smoothSolver:  Solving for Uz, Initial residual = 1.13552e-05, Final residual = 2.2842e-12, No Iterations 1
diagonal:  Solving for rhoE, Initial residual = 0, Final residual = 0, No Iterations 0
smoothSolver:  Solving for e, Initial residual = 1.5729e-07, Final residual = 1.5729e-07, No Iterations 0
smoothSolver:  Solving for omega, Initial residual = 6.01266e-06, Final residual = 1.01351e-12, No Iterations 1
smoothSolver:  Solving for k, Initial residual = 0.0823584, Final residual = 1.55027e-08, No Iterations 1
ExecutionTime = 2.79 s  ClockTime = 3 s

deltaT = 6.62397e-06
Mean and max Courant Numbers = 0.00135712 0.10002
Time = 4.96993e-05

diagonal:  Solving for rho, Initial residual = 0, Final residual = 0, No Iterations 0
diagonal:  Solving for rhoUx, Initial residual = 0, Final residual = 0, No Iterations 0
diagonal:  Solving for rhoUy, Initial residual = 0, Final residual = 0, No Iterations 0
diagonal:  Solving for rhoUz, Initial residual = 0, Final residual = 0, No Iterations 0
smoothSolver:  Solving for Ux, Initial residual = 3.65142e-07, Final residual = 3.65142e-07, No Iterations 0
smoothSolver:  Solving for Uy, Initial residual = 3.65142e-07, Final residual = 3.65142e-07, No Iterations 0
smoothSolver:  Solving for Uz, Initial residual = 9.8568e-06, Final residual = 1.98201e-12, No Iterations 1
diagonal:  Solving for rhoE, Initial residual = 0, Final residual = 0, No Iterations 0
smoothSolver:  Solving for e, Initial residual = 1.57388e-07, Final residual = 1.57388e-07, No Iterations 0
smoothSolver:  Solving for omega, Initial residual = 6.01964e-06, Final residual = 1.01308e-12, No Iterations 1
smoothSolver:  Solving for k, Initial residual = 0.0699414, Final residual = 1.31204e-08, No Iterations 1
ExecutionTime = 3.01 s  ClockTime = 3 s

deltaT = 6.62397e-06
Mean and max Courant Numbers = 0.00135711 0.10002
Time = 5.63233e-05

diagonal:  Solving for rho, Initial residual = 0, Final residual = 0, No Iterations 0
diagonal:  Solving for rhoUx, Initial residual = 0, Final residual = 0, No Iterations 0
diagonal:  Solving for rhoUy, Initial residual = 0, Final residual = 0, No Iterations 0
diagonal:  Solving for rhoUz, Initial residual = 0, Final residual = 0, No Iterations 0
smoothSolver:  Solving for Ux, Initial residual = 3.66302e-07, Final residual = 3.66302e-07, No Iterations 0
smoothSolver:  Solving for Uy, Initial residual = 3.66302e-07, Final residual = 3.66302e-07, No Iterations 0
smoothSolver:  Solving for Uz, Initial residual = 8.71083e-06, Final residual = 1.75091e-12, No Iterations 1
diagonal:  Solving for rhoE, Initial residual = 0, Final residual = 0, No Iterations 0
smoothSolver:  Solving for e, Initial residual = 1.57486e-07, Final residual = 1.57486e-07, No Iterations 0
smoothSolver:  Solving for omega, Initial residual = 6.02664e-06, Final residual = 1.01293e-12, No Iterations 1
smoothSolver:  Solving for k, Initial residual = 0.0607991, Final residual = 1.13685e-08, No Iterations 1
ExecutionTime = 3.22 s  ClockTime = 3 s

deltaT = 6.62397e-06
Mean and max Courant Numbers = 0.00135711 0.10002
Time = 6.29473e-05

diagonal:  Solving for rho, Initial residual = 0, Final residual = 0, No Iterations 0
diagonal:  Solving for rhoUx, Initial residual = 0, Final residual = 0, No Iterations 0
diagonal:  Solving for rhoUy, Initial residual = 0, Final residual = 0, No Iterations 0
diagonal:  Solving for rhoUz, Initial residual = 0, Final residual = 0, No Iterations 0
smoothSolver:  Solving for Ux, Initial residual = 3.67274e-07, Final residual = 3.67274e-07, No Iterations 0
smoothSolver:  Solving for Uy, Initial residual = 3.67274e-07, Final residual = 3.67274e-07, No Iterations 0
smoothSolver:  Solving for Uz, Initial residual = 7.80604e-06, Final residual = 1.56847e-12, No Iterations 1
diagonal:  Solving for rhoE, Initial residual = 0, Final residual = 0, No Iterations 0
smoothSolver:  Solving for e, Initial residual = 1.57585e-07, Final residual = 1.57585e-07, No Iterations 0
smoothSolver:  Solving for omega, Initial residual = 6.03366e-06, Final residual = 1.01305e-12, No Iterations 1
smoothSolver:  Solving for k, Initial residual = 0.0537869, Final residual = 1.00268e-08, No Iterations 1
ExecutionTime = 3.45 s  ClockTime = 4 s

deltaT = 6.62397e-06
Mean and max Courant Numbers = 0.0013571 0.10002
Time = 6.95712e-05

diagonal:  Solving for rho, Initial residual = 0, Final residual = 0, No Iterations 0
diagonal:  Solving for rhoUx, Initial residual = 0, Final residual = 0, No Iterations 0
diagonal:  Solving for rhoUy, Initial residual = 0, Final residual = 0, No Iterations 0
diagonal:  Solving for rhoUz, Initial residual = 0, Final residual = 0, No Iterations 0
smoothSolver:  Solving for Ux, Initial residual = 3.68106e-07, Final residual = 3.68106e-07, No Iterations 0
smoothSolver:  Solving for Uy, Initial residual = 3.68106e-07, Final residual = 3.68106e-07, No Iterations 0
smoothSolver:  Solving for Uz, Initial residual = 7.07356e-06, Final residual = 1.4207e-12, No Iterations 1
diagonal:  Solving for rhoE, Initial residual = 0, Final residual = 0, No Iterations 0
smoothSolver:  Solving for e, Initial residual = 1.57684e-07, Final residual = 1.57684e-07, No Iterations 0
smoothSolver:  Solving for omega, Initial residual = 6.04069e-06, Final residual = 1.01344e-12, No Iterations 1
smoothSolver:  Solving for k, Initial residual = 0.0482382, Final residual = 8.96673e-09, No Iterations 1
ExecutionTime = 3.68 s  ClockTime = 4 s

deltaT = 6.62397e-06
Mean and max Courant Numbers = 0.0013571 0.10002
Time = 7.61952e-05

diagonal:  Solving for rho, Initial residual = 0, Final residual = 0, No Iterations 0
diagonal:  Solving for rhoUx, Initial residual = 0, Final residual = 0, No Iterations 0
diagonal:  Solving for rhoUy, Initial residual = 0, Final residual = 0, No Iterations 0
diagonal:  Solving for rhoUz, Initial residual = 0, Final residual = 0, No Iterations 0
smoothSolver:  Solving for Ux, Initial residual = 3.68832e-07, Final residual = 3.68832e-07, No Iterations 0
smoothSolver:  Solving for Uy, Initial residual = 3.68832e-07, Final residual = 3.68832e-07, No Iterations 0
smoothSolver:  Solving for Uz, Initial residual = 6.46844e-06, Final residual = 1.29874e-12, No Iterations 1
diagonal:  Solving for rhoE, Initial residual = 0, Final residual = 0, No Iterations 0
smoothSolver:  Solving for e, Initial residual = 1.57783e-07, Final residual = 1.57783e-07, No Iterations 0
smoothSolver:  Solving for omega, Initial residual = 6.04773e-06, Final residual = 1.01405e-12, No Iterations 1
smoothSolver:  Solving for k, Initial residual = 0.043738, Final residual = 8.10826e-09, No Iterations 1
ExecutionTime = 3.91 s  ClockTime = 4 s

deltaT = 6.62397e-06
Mean and max Courant Numbers = 0.0013571 0.10002
Time = 8.28192e-05

diagonal:  Solving for rho, Initial residual = 0, Final residual = 0, No Iterations 0
diagonal:  Solving for rhoUx, Initial residual = 0, Final residual = 0, No Iterations 0
diagonal:  Solving for rhoUy, Initial residual = 0, Final residual = 0, No Iterations 0
diagonal:  Solving for rhoUz, Initial residual = 0, Final residual = 0, No Iterations 0
smoothSolver:  Solving for Ux, Initial residual = 3.69483e-07, Final residual = 3.69483e-07, No Iterations 0
smoothSolver:  Solving for Uy, Initial residual = 3.69483e-07, Final residual = 3.69483e-07, No Iterations 0
smoothSolver:  Solving for Uz, Initial residual = 5.96013e-06, Final residual = 1.19619e-12, No Iterations 1
diagonal:  Solving for rhoE, Initial residual = 0, Final residual = 0, No Iterations 0
smoothSolver:  Solving for e, Initial residual = 1.57882e-07, Final residual = 1.57882e-07, No Iterations 0
smoothSolver:  Solving for omega, Initial residual = 6.05479e-06, Final residual = 1.0144e-12, No Iterations 1
smoothSolver:  Solving for k, Initial residual = 0.0400149, Final residual = 7.39669e-09, No Iterations 1
ExecutionTime = 4.1 s  ClockTime = 4 s

deltaT = 6.62397e-06
Mean and max Courant Numbers = 0.00135709 0.10002
Time = 8.94431e-05

diagonal:  Solving for rho, Initial residual = 0, Final residual = 0, No Iterations 0
diagonal:  Solving for rhoUx, Initial residual = 0, Final residual = 0, No Iterations 0
diagonal:  Solving for rhoUy, Initial residual = 0, Final residual = 0, No Iterations 0
diagonal:  Solving for rhoUz, Initial residual = 0, Final residual = 0, No Iterations 0
smoothSolver:  Solving for Ux, Initial residual = 3.70076e-07, Final residual = 3.70076e-07, No Iterations 0
smoothSolver:  Solving for Uy, Initial residual = 3.70076e-07, Final residual = 3.70076e-07, No Iterations 0
smoothSolver:  Solving for Uz, Initial residual = 5.52712e-06, Final residual = 1.10883e-12, No Iterations 1
diagonal:  Solving for rhoE, Initial residual = 0, Final residual = 0, No Iterations 0
smoothSolver:  Solving for e, Initial residual = 1.57982e-07, Final residual = 1.57982e-07, No Iterations 0
smoothSolver:  Solving for omega, Initial residual = 6.06187e-06, Final residual = 1.0148e-12, No Iterations 1
smoothSolver:  Solving for k, Initial residual = 0.0368836, Final residual = 6.79848e-09, No Iterations 1
ExecutionTime = 4.32 s  ClockTime = 4 s

deltaT = 6.62397e-06
Mean and max Courant Numbers = 0.00135709 0.10002
Time = 9.60671e-05

diagonal:  Solving for rho, Initial residual = 0, Final residual = 0, No Iterations 0
diagonal:  Solving for rhoUx, Initial residual = 0, Final residual = 0, No Iterations 0
diagonal:  Solving for rhoUy, Initial residual = 0, Final residual = 0, No Iterations 0
diagonal:  Solving for rhoUz, Initial residual = 0, Final residual = 0, No Iterations 0
smoothSolver:  Solving for Ux, Initial residual = 3.70623e-07, Final residual = 3.70623e-07, No Iterations 0
smoothSolver:  Solving for Uy, Initial residual = 3.70623e-07, Final residual = 3.70623e-07, No Iterations 0
smoothSolver:  Solving for Uz, Initial residual = 5.15383e-06, Final residual = 1.03356e-12, No Iterations 1
diagonal:  Solving for rhoE, Initial residual = 0, Final residual = 0, No Iterations 0
smoothSolver:  Solving for e, Initial residual = 1.58082e-07, Final residual = 1.58082e-07, No Iterations 0
smoothSolver:  Solving for omega, Initial residual = 6.06896e-06, Final residual = 1.01522e-12, No Iterations 1
smoothSolver:  Solving for k, Initial residual = 0.0342134, Final residual = 6.28846e-09, No Iterations 1
ExecutionTime = 4.53 s  ClockTime = 5 s

deltaT = 6.62397e-06
Mean and max Courant Numbers = 0.00135708 0.10002
Time = 0.000102691

diagonal:  Solving for rho, Initial residual = 0, Final residual = 0, No Iterations 0
diagonal:  Solving for rhoUx, Initial residual = 0, Final residual = 0, No Iterations 0
diagonal:  Solving for rhoUy, Initial residual = 0, Final residual = 0, No Iterations 0
diagonal:  Solving for rhoUz, Initial residual = 0, Final residual = 0, No Iterations 0
smoothSolver:  Solving for Ux, Initial residual = 3.71134e-07, Final residual = 3.71134e-07, No Iterations 0
smoothSolver:  Solving for Uy, Initial residual = 3.71134e-07, Final residual = 3.71134e-07, No Iterations 0
smoothSolver:  Solving for Uz, Initial residual = 4.82871e-06, Final residual = 9.68043e-13, No Iterations 1
diagonal:  Solving for rhoE, Initial residual = 0, Final residual = 0, No Iterations 0
smoothSolver:  Solving for e, Initial residual = 1.58182e-07, Final residual = 1.58182e-07, No Iterations 0
smoothSolver:  Solving for omega, Initial residual = 6.07607e-06, Final residual = 1.01564e-12, No Iterations 1
smoothSolver:  Solving for k, Initial residual = 0.0319094, Final residual = 5.84837e-09, No Iterations 1
ExecutionTime = 4.75 s  ClockTime = 5 s

deltaT = 6.62397e-06
Mean and max Courant Numbers = 0.00135708 0.10002
Time = 0.000109315

diagonal:  Solving for rho, Initial residual = 0, Final residual = 0, No Iterations 0
diagonal:  Solving for rhoUx, Initial residual = 0, Final residual = 0, No Iterations 0
diagonal:  Solving for rhoUy, Initial residual = 0, Final residual = 0, No Iterations 0
diagonal:  Solving for rhoUz, Initial residual = 0, Final residual = 0, No Iterations 0
smoothSolver:  Solving for Ux, Initial residual = 3.71617e-07, Final residual = 3.71617e-07, No Iterations 0
smoothSolver:  Solving for Uy, Initial residual = 3.71617e-07, Final residual = 3.71617e-07, No Iterations 0
smoothSolver:  Solving for Uz, Initial residual = 4.543e-06, Final residual = 9.10376e-13, No Iterations 1
diagonal:  Solving for rhoE, Initial residual = 0, Final residual = 0, No Iterations 0
smoothSolver:  Solving for e, Initial residual = 1.58282e-07, Final residual = 1.58282e-07, No Iterations 0
smoothSolver:  Solving for omega, Initial residual = 6.0832e-06, Final residual = 1.01601e-12, No Iterations 1
smoothSolver:  Solving for k, Initial residual = 0.0299012, Final residual = 5.46457e-09, No Iterations 1
ExecutionTime = 4.95 s  ClockTime = 5 s

deltaT = 6.62397e-06
Mean and max Courant Numbers = 0.00135707 0.10002
Time = 0.000115939

diagonal:  Solving for rho, Initial residual = 0, Final residual = 0, No Iterations 0
diagonal:  Solving for rhoUx, Initial residual = 0, Final residual = 0, No Iterations 0
diagonal:  Solving for rhoUy, Initial residual = 0, Final residual = 0, No Iterations 0
diagonal:  Solving for rhoUz, Initial residual = 0, Final residual = 0, No Iterations 0
smoothSolver:  Solving for Ux, Initial residual = 3.72076e-07, Final residual = 3.72076e-07, No Iterations 0
smoothSolver:  Solving for Uy, Initial residual = 3.72076e-07, Final residual = 3.72076e-07, No Iterations 0
smoothSolver:  Solving for Uz, Initial residual = 4.28995e-06, Final residual = 8.59366e-13, No Iterations 1
diagonal:  Solving for rhoE, Initial residual = 0, Final residual = 0, No Iterations 0
smoothSolver:  Solving for e, Initial residual = 1.58383e-07, Final residual = 1.58383e-07, No Iterations 0
smoothSolver:  Solving for omega, Initial residual = 6.09034e-06, Final residual = 1.01632e-12, No Iterations 1
smoothSolver:  Solving for k, Initial residual = 0.0281352, Final residual = 5.12687e-09, No Iterations 1
ExecutionTime = 5.15 s  ClockTime = 5 s

deltaT = 6.62397e-06
Mean and max Courant Numbers = 0.00135707 0.10002
Time = 0.000122563

diagonal:  Solving for rho, Initial residual = 0, Final residual = 0, No Iterations 0
diagonal:  Solving for rhoUx, Initial residual = 0, Final residual = 0, No Iterations 0
diagonal:  Solving for rhoUy, Initial residual = 0, Final residual = 0, No Iterations 0
diagonal:  Solving for rhoUz, Initial residual = 0, Final residual = 0, No Iterations 0
smoothSolver:  Solving for Ux, Initial residual = 3.72517e-07, Final residual = 3.72517e-07, No Iterations 0
smoothSolver:  Solving for Uy, Initial residual = 3.72517e-07, Final residual = 3.72517e-07, No Iterations 0
smoothSolver:  Solving for Uz, Initial residual = 4.06425e-06, Final residual = 8.13843e-13, No Iterations 1
diagonal:  Solving for rhoE, Initial residual = 0, Final residual = 0, No Iterations 0
smoothSolver:  Solving for e, Initial residual = 1.58484e-07, Final residual = 1.58484e-07, No Iterations 0
smoothSolver:  Solving for omega, Initial residual = 6.0975e-06, Final residual = 1.01652e-12, No Iterations 1
smoothSolver:  Solving for k, Initial residual = 0.0265701, Final residual = 4.82723e-09, No Iterations 1
ExecutionTime = 5.37 s  ClockTime = 5 s

deltaT = 6.62397e-06
Mean and max Courant Numbers = 0.00135706 0.10002
Time = 0.000129187

diagonal:  Solving for rho, Initial residual = 0, Final residual = 0, No Iterations 0
diagonal:  Solving for rhoUx, Initial residual = 0, Final residual = 0, No Iterations 0
diagonal:  Solving for rhoUy, Initial residual = 0, Final residual = 0, No Iterations 0
diagonal:  Solving for rhoUz, Initial residual = 0, Final residual = 0, No Iterations 0
smoothSolver:  Solving for Ux, Initial residual = 3.72944e-07, Final residual = 3.72944e-07, No Iterations 0
smoothSolver:  Solving for Uy, Initial residual = 3.72944e-07, Final residual = 3.72944e-07, No Iterations 0
smoothSolver:  Solving for Uz, Initial residual = 3.86171e-06, Final residual = 7.7307e-13, No Iterations 1
diagonal:  Solving for rhoE, Initial residual = 0, Final residual = 0, No Iterations 0
smoothSolver:  Solving for e, Initial residual = 1.58585e-07, Final residual = 1.58585e-07, No Iterations 0
smoothSolver:  Solving for omega, Initial residual = 6.10467e-06, Final residual = 1.01659e-12, No Iterations 1
smoothSolver:  Solving for k, Initial residual = 0.0251736, Final residual = 4.55938e-09, No Iterations 1
ExecutionTime = 5.58 s  ClockTime = 6 s

deltaT = 6.62397e-06
Mean and max Courant Numbers = 0.00135706 0.10002
Time = 0.000135811

diagonal:  Solving for rho, Initial residual = 0, Final residual = 0, No Iterations 0
diagonal:  Solving for rhoUx, Initial residual = 0, Final residual = 0, No Iterations 0
diagonal:  Solving for rhoUy, Initial residual = 0, Final residual = 0, No Iterations 0
diagonal:  Solving for rhoUz, Initial residual = 0, Final residual = 0, No Iterations 0
smoothSolver:  Solving for Ux, Initial residual = 3.73359e-07, Final residual = 3.73359e-07, No Iterations 0
smoothSolver:  Solving for Uy, Initial residual = 3.73359e-07, Final residual = 3.73359e-07, No Iterations 0
smoothSolver:  Solving for Uz, Initial residual = 3.67894e-06, Final residual = 7.36083e-13, No Iterations 1
diagonal:  Solving for rhoE, Initial residual = 0, Final residual = 0, No Iterations 0
smoothSolver:  Solving for e, Initial residual = 1.58686e-07, Final residual = 1.58686e-07, No Iterations 0
smoothSolver:  Solving for omega, Initial residual = 6.11186e-06, Final residual = 1.01648e-12, No Iterations 1
smoothSolver:  Solving for k, Initial residual = 0.0239196, Final residual = 4.31839e-09, No Iterations 1
ExecutionTime = 5.78 s  ClockTime = 6 s

deltaT = 6.62397e-06
Mean and max Courant Numbers = 0.00135706 0.10002
Time = 0.000142435

diagonal:  Solving for rho, Initial residual = 0, Final residual = 0, No Iterations 0
diagonal:  Solving for rhoUx, Initial residual = 0, Final residual = 0, No Iterations 0
diagonal:  Solving for rhoUy, Initial residual = 0, Final residual = 0, No Iterations 0
diagonal:  Solving for rhoUz, Initial residual = 0, Final residual = 0, No Iterations 0
smoothSolver:  Solving for Ux, Initial residual = 3.73764e-07, Final residual = 3.73764e-07, No Iterations 0
smoothSolver:  Solving for Uy, Initial residual = 3.73764e-07, Final residual = 3.73764e-07, No Iterations 0
smoothSolver:  Solving for Uz, Initial residual = 3.51317e-06, Final residual = 7.02664e-13, No Iterations 1
diagonal:  Solving for rhoE, Initial residual = 0, Final residual = 0, No Iterations 0
smoothSolver:  Solving for e, Initial residual = 1.58787e-07, Final residual = 1.58787e-07, No Iterations 0
smoothSolver:  Solving for omega, Initial residual = 6.11907e-06, Final residual = 1.01617e-12, No Iterations 1
smoothSolver:  Solving for k, Initial residual = 0.0227876, Final residual = 4.10019e-09, No Iterations 1
ExecutionTime = 6.01 s  ClockTime = 6 s

deltaT = 6.62397e-06
Mean and max Courant Numbers = 0.00135705 0.10002
Time = 0.000149059

diagonal:  Solving for rho, Initial residual = 0, Final residual = 0, No Iterations 0
diagonal:  Solving for rhoUx, Initial residual = 0, Final residual = 0, No Iterations 0
diagonal:  Solving for rhoUy, Initial residual = 0, Final residual = 0, No Iterations 0
diagonal:  Solving for rhoUz, Initial residual = 0, Final residual = 0, No Iterations 0
smoothSolver:  Solving for Ux, Initial residual = 3.74155e-07, Final residual = 3.74155e-07, No Iterations 0
smoothSolver:  Solving for Uy, Initial residual = 3.74155e-07, Final residual = 3.74155e-07, No Iterations 0
smoothSolver:  Solving for Uz, Initial residual = 3.36214e-06, Final residual = 6.72213e-13, No Iterations 1
diagonal:  Solving for rhoE, Initial residual = 0, Final residual = 0, No Iterations 0
smoothSolver:  Solving for e, Initial residual = 1.58889e-07, Final residual = 1.58889e-07, No Iterations 0
smoothSolver:  Solving for omega, Initial residual = 6.12629e-06, Final residual = 1.01728e-12, No Iterations 1
smoothSolver:  Solving for k, Initial residual = 0.0217605, Final residual = 3.9062e-09, No Iterations 1
ExecutionTime = 6.23 s  ClockTime = 6 s

deltaT = 6.62397e-06
Mean and max Courant Numbers = 0.00135705 0.10002
Time = 0.000155683

diagonal:  Solving for rho, Initial residual = 0, Final residual = 0, No Iterations 0
diagonal:  Solving for rhoUx, Initial residual = 0, Final residual = 0, No Iterations 0
diagonal:  Solving for rhoUy, Initial residual = 0, Final residual = 0, No Iterations 0
diagonal:  Solving for rhoUz, Initial residual = 0, Final residual = 0, No Iterations 0
smoothSolver:  Solving for Ux, Initial residual = 3.7453e-07, Final residual = 3.7453e-07, No Iterations 0
smoothSolver:  Solving for Uy, Initial residual = 3.7453e-07, Final residual = 3.7453e-07, No Iterations 0
smoothSolver:  Solving for Uz, Initial residual = 3.22397e-06, Final residual = 6.44335e-13, No Iterations 1
diagonal:  Solving for rhoE, Initial residual = 0, Final residual = 0, No Iterations 0
smoothSolver:  Solving for e, Initial residual = 1.58991e-07, Final residual = 1.58991e-07, No Iterations 0
smoothSolver:  Solving for omega, Initial residual = 6.13353e-06, Final residual = 1.01911e-12, No Iterations 1
smoothSolver:  Solving for k, Initial residual = 0.0208244, Final residual = 3.73122e-09, No Iterations 1
ExecutionTime = 6.44 s  ClockTime = 7 s

deltaT = 6.62397e-06
Mean and max Courant Numbers = 0.00135704 0.10002
Time = 0.000162307

diagonal:  Solving for rho, Initial residual = 0, Final residual = 0, No Iterations 0
diagonal:  Solving for rhoUx, Initial residual = 0, Final residual = 0, No Iterations 0
diagonal:  Solving for rhoUy, Initial residual = 0, Final residual = 0, No Iterations 0
diagonal:  Solving for rhoUz, Initial residual = 0, Final residual = 0, No Iterations 0
smoothSolver:  Solving for Ux, Initial residual = 3.74893e-07, Final residual = 3.74893e-07, No Iterations 0
smoothSolver:  Solving for Uy, Initial residual = 3.74893e-07, Final residual = 3.74893e-07, No Iterations 0
smoothSolver:  Solving for Uz, Initial residual = 3.09709e-06, Final residual = 6.18739e-13, No Iterations 1
diagonal:  Solving for rhoE, Initial residual = 0, Final residual = 0, No Iterations 0
smoothSolver:  Solving for e, Initial residual = 1.59093e-07, Final residual = 1.59093e-07, No Iterations 0
smoothSolver:  Solving for omega, Initial residual = 6.14079e-06, Final residual = 1.02111e-12, No Iterations 1
smoothSolver:  Solving for k, Initial residual = 0.0199677, Final residual = 3.57157e-09, No Iterations 1
ExecutionTime = 6.66 s  ClockTime = 7 s

deltaT = 6.62397e-06
Mean and max Courant Numbers = 0.00135704 0.10002
Time = 0.000168931

diagonal:  Solving for rho, Initial residual = 0, Final residual = 0, No Iterations 0
diagonal:  Solving for rhoUx, Initial residual = 0, Final residual = 0, No Iterations 0
diagonal:  Solving for rhoUy, Initial residual = 0, Final residual = 0, No Iterations 0
diagonal:  Solving for rhoUz, Initial residual = 0, Final residual = 0, No Iterations 0
smoothSolver:  Solving for Ux, Initial residual = 3.75244e-07, Final residual = 3.75244e-07, No Iterations 0
smoothSolver:  Solving for Uy, Initial residual = 3.75244e-07, Final residual = 3.75244e-07, No Iterations 0
smoothSolver:  Solving for Uz, Initial residual = 2.98016e-06, Final residual = 5.95238e-13, No Iterations 1
diagonal:  Solving for rhoE, Initial residual = 0, Final residual = 0, No Iterations 0
smoothSolver:  Solving for e, Initial residual = 1.59195e-07, Final residual = 1.59195e-07, No Iterations 0
smoothSolver:  Solving for omega, Initial residual = 6.14806e-06, Final residual = 1.0233e-12, No Iterations 1
smoothSolver:  Solving for k, Initial residual = 0.0191808, Final residual = 3.42536e-09, No Iterations 1
ExecutionTime = 6.89 s  ClockTime = 7 s

deltaT = 6.62397e-06
Mean and max Courant Numbers = 0.00135703 0.10002
Time = 0.000175555

diagonal:  Solving for rho, Initial residual = 0, Final residual = 0, No Iterations 0
diagonal:  Solving for rhoUx, Initial residual = 0, Final residual = 0, No Iterations 0
diagonal:  Solving for rhoUy, Initial residual = 0, Final residual = 0, No Iterations 0
diagonal:  Solving for rhoUz, Initial residual = 0, Final residual = 0, No Iterations 0
smoothSolver:  Solving for Ux, Initial residual = 3.75585e-07, Final residual = 3.75585e-07, No Iterations 0
smoothSolver:  Solving for Uy, Initial residual = 3.75585e-07, Final residual = 3.75585e-07, No Iterations 0
smoothSolver:  Solving for Uz, Initial residual = 2.87206e-06, Final residual = 5.73376e-13, No Iterations 1
diagonal:  Solving for rhoE, Initial residual = 0, Final residual = 0, No Iterations 0
smoothSolver:  Solving for e, Initial residual = 1.59298e-07, Final residual = 1.59298e-07, No Iterations 0
smoothSolver:  Solving for omega, Initial residual = 6.15535e-06, Final residual = 1.02567e-12, No Iterations 1
smoothSolver:  Solving for k, Initial residual = 0.0184554, Final residual = 3.29101e-09, No Iterations 1
ExecutionTime = 7.1 s  ClockTime = 7 s

deltaT = 6.62397e-06
Mean and max Courant Numbers = 0.00135703 0.10002
Time = 0.000182179

diagonal:  Solving for rho, Initial residual = 0, Final residual = 0, No Iterations 0
diagonal:  Solving for rhoUx, Initial residual = 0, Final residual = 0, No Iterations 0
diagonal:  Solving for rhoUy, Initial residual = 0, Final residual = 0, No Iterations 0
diagonal:  Solving for rhoUz, Initial residual = 0, Final residual = 0, No Iterations 0
smoothSolver:  Solving for Ux, Initial residual = 3.75917e-07, Final residual = 3.75917e-07, No Iterations 0
smoothSolver:  Solving for Uy, Initial residual = 3.75917e-07, Final residual = 3.75917e-07, No Iterations 0
smoothSolver:  Solving for Uz, Initial residual = 2.77183e-06, Final residual = 5.53154e-13, No Iterations 1
diagonal:  Solving for rhoE, Initial residual = 0, Final residual = 0, No Iterations 0
smoothSolver:  Solving for e, Initial residual = 1.59383e-07, Final residual = 1.59383e-07, No Iterations 0
smoothSolver:  Solving for omega, Initial residual = 6.16265e-06, Final residual = 1.02822e-12, No Iterations 1
smoothSolver:  Solving for k, Initial residual = 0.0177846, Final residual = 3.16717e-09, No Iterations 1
ExecutionTime = 7.32 s  ClockTime = 7 s

deltaT = 6.62397e-06
Mean and max Courant Numbers = 0.00135702 0.10002
Time = 0.000188803

diagonal:  Solving for rho, Initial residual = 0, Final residual = 0, No Iterations 0
diagonal:  Solving for rhoUx, Initial residual = 0, Final residual = 0, No Iterations 0
diagonal:  Solving for rhoUy, Initial residual = 0, Final residual = 0, No Iterations 0
diagonal:  Solving for rhoUz, Initial residual = 0, Final residual = 0, No Iterations 0
smoothSolver:  Solving for Ux, Initial residual = 3.76242e-07, Final residual = 3.76242e-07, No Iterations 0
smoothSolver:  Solving for Uy, Initial residual = 3.76242e-07, Final residual = 3.76242e-07, No Iterations 0
smoothSolver:  Solving for Uz, Initial residual = 2.67864e-06, Final residual = 5.34359e-13, No Iterations 1
diagonal:  Solving for rhoE, Initial residual = 0, Final residual = 0, No Iterations 0
smoothSolver:  Solving for e, Initial residual = 1.5945e-07, Final residual = 1.5945e-07, No Iterations 0
smoothSolver:  Solving for omega, Initial residual = 6.16997e-06, Final residual = 1.03096e-12, No Iterations 1
smoothSolver:  Solving for k, Initial residual = 0.0171625, Final residual = 3.05275e-09, No Iterations 1
ExecutionTime = 7.5 s  ClockTime = 8 s

deltaT = 6.62397e-06
Mean and max Courant Numbers = 0.00135702 0.10002
Time = 0.000195427

diagonal:  Solving for rho, Initial residual = 0, Final residual = 0, No Iterations 0
diagonal:  Solving for rhoUx, Initial residual = 0, Final residual = 0, No Iterations 0
diagonal:  Solving for rhoUy, Initial residual = 0, Final residual = 0, No Iterations 0
diagonal:  Solving for rhoUz, Initial residual = 0, Final residual = 0, No Iterations 0
smoothSolver:  Solving for Ux, Initial residual = 3.7656e-07, Final residual = 3.7656e-07, No Iterations 0
smoothSolver:  Solving for Uy, Initial residual = 3.7656e-07, Final residual = 3.7656e-07, No Iterations 0
smoothSolver:  Solving for Uz, Initial residual = 2.59177e-06, Final residual = 5.16886e-13, No Iterations 1
diagonal:  Solving for rhoE, Initial residual = 0, Final residual = 0, No Iterations 0
smoothSolver:  Solving for e, Initial residual = 1.59517e-07, Final residual = 1.59517e-07, No Iterations 0
smoothSolver:  Solving for omega, Initial residual = 6.17731e-06, Final residual = 1.03388e-12, No Iterations 1
smoothSolver:  Solving for k, Initial residual = 0.0165839, Final residual = 2.94667e-09, No Iterations 1
ExecutionTime = 7.71 s  ClockTime = 8 s

deltaT = 6.62397e-06
Mean and max Courant Numbers = 0.00135701 0.10002
Time = 0.000202051

diagonal:  Solving for rho, Initial residual = 0, Final residual = 0, No Iterations 0
diagonal:  Solving for rhoUx, Initial residual = 0, Final residual = 0, No Iterations 0
diagonal:  Solving for rhoUy, Initial residual = 0, Final residual = 0, No Iterations 0
diagonal:  Solving for rhoUz, Initial residual = 0, Final residual = 0, No Iterations 0
smoothSolver:  Solving for Ux, Initial residual = 3.76872e-07, Final residual = 3.76872e-07, No Iterations 0
smoothSolver:  Solving for Uy, Initial residual = 3.76872e-07, Final residual = 3.76872e-07, No Iterations 0
smoothSolver:  Solving for Uz, Initial residual = 2.5106e-06, Final residual = 5.00444e-13, No Iterations 1
diagonal:  Solving for rhoE, Initial residual = 0, Final residual = 0, No Iterations 0
smoothSolver:  Solving for e, Initial residual = 1.59585e-07, Final residual = 1.59585e-07, No Iterations 0
smoothSolver:  Solving for omega, Initial residual = 6.18467e-06, Final residual = 1.03699e-12, No Iterations 1
smoothSolver:  Solving for k, Initial residual = 0.0160445, Final residual = 2.8482e-09, No Iterations 1
ExecutionTime = 7.95 s  ClockTime = 8 s

deltaT = 6.62397e-06
Mean and max Courant Numbers = 0.00135701 0.10002
Time = 0.000208675

diagonal:  Solving for rho, Initial residual = 0, Final residual = 0, No Iterations 0
diagonal:  Solving for rhoUx, Initial residual = 0, Final residual = 0, No Iterations 0
diagonal:  Solving for rhoUy, Initial residual = 0, Final residual = 0, No Iterations 0
diagonal:  Solving for rhoUz, Initial residual = 0, Final residual = 0, No Iterations 0
smoothSolver:  Solving for Ux, Initial residual = 3.77179e-07, Final residual = 3.77179e-07, No Iterations 0
smoothSolver:  Solving for Uy, Initial residual = 3.77179e-07, Final residual = 3.77179e-07, No Iterations 0
smoothSolver:  Solving for Uz, Initial residual = 2.4346e-06, Final residual = 4.85125e-13, No Iterations 1
diagonal:  Solving for rhoE, Initial residual = 0, Final residual = 0, No Iterations 0
smoothSolver:  Solving for e, Initial residual = 1.59653e-07, Final residual = 1.59653e-07, No Iterations 0
smoothSolver:  Solving for omega, Initial residual = 6.19204e-06, Final residual = 1.04028e-12, No Iterations 1
smoothSolver:  Solving for k, Initial residual = 0.0155404, Final residual = 2.75652e-09, No Iterations 1
ExecutionTime = 8.16 s  ClockTime = 8 s

deltaT = 6.62397e-06
Mean and max Courant Numbers = 0.001357 0.10002
Time = 0.000215299

diagonal:  Solving for rho, Initial residual = 0, Final residual = 0, No Iterations 0
diagonal:  Solving for rhoUx, Initial residual = 0, Final residual = 0, No Iterations 0
diagonal:  Solving for rhoUy, Initial residual = 0, Final residual = 0, No Iterations 0
diagonal:  Solving for rhoUz, Initial residual = 0, Final residual = 0, No Iterations 0
smoothSolver:  Solving for Ux, Initial residual = 3.77481e-07, Final residual = 3.77481e-07, No Iterations 0
smoothSolver:  Solving for Uy, Initial residual = 3.77481e-07, Final residual = 3.77481e-07, No Iterations 0
smoothSolver:  Solving for Uz, Initial residual = 2.36327e-06, Final residual = 4.70735e-13, No Iterations 1
diagonal:  Solving for rhoE, Initial residual = 0, Final residual = 0, No Iterations 0
smoothSolver:  Solving for e, Initial residual = 1.59721e-07, Final residual = 1.59721e-07, No Iterations 0
smoothSolver:  Solving for omega, Initial residual = 6.19943e-06, Final residual = 1.04377e-12, No Iterations 1
smoothSolver:  Solving for k, Initial residual = 0.0150683, Final residual = 2.671e-09, No Iterations 1
ExecutionTime = 8.4 s  ClockTime = 9 s

deltaT = 6.62397e-06
Mean and max Courant Numbers = 0.001357 0.10002
Time = 0.000221923

diagonal:  Solving for rho, Initial residual = 0, Final residual = 0, No Iterations 0
diagonal:  Solving for rhoUx, Initial residual = 0, Final residual = 0, No Iterations 0
diagonal:  Solving for rhoUy, Initial residual = 0, Final residual = 0, No Iterations 0
diagonal:  Solving for rhoUz, Initial residual = 0, Final residual = 0, No Iterations 0
smoothSolver:  Solving for Ux, Initial residual = 3.7778e-07, Final residual = 3.7778e-07, No Iterations 0
smoothSolver:  Solving for Uy, Initial residual = 3.7778e-07, Final residual = 3.7778e-07, No Iterations 0
smoothSolver:  Solving for Uz, Initial residual = 2.29621e-06, Final residual = 4.57219e-13, No Iterations 1
diagonal:  Solving for rhoE, Initial residual = 0, Final residual = 0, No Iterations 0
smoothSolver:  Solving for e, Initial residual = 1.59789e-07, Final residual = 1.59789e-07, No Iterations 0
smoothSolver:  Solving for omega, Initial residual = 6.20684e-06, Final residual = 1.04744e-12, No Iterations 1
smoothSolver:  Solving for k, Initial residual = 0.0146251, Final residual = 2.5911e-09, No Iterations 1
ExecutionTime = 8.62 s  ClockTime = 9 s

deltaT = 6.62397e-06
Mean and max Courant Numbers = 0.00135699 0.10002
Time = 0.000228547

diagonal:  Solving for rho, Initial residual = 0, Final residual = 0, No Iterations 0
diagonal:  Solving for rhoUx, Initial residual = 0, Final residual = 0, No Iterations 0
diagonal:  Solving for rhoUy, Initial residual = 0, Final residual = 0, No Iterations 0
diagonal:  Solving for rhoUz, Initial residual = 0, Final residual = 0, No Iterations 0
smoothSolver:  Solving for Ux, Initial residual = 3.78074e-07, Final residual = 3.78074e-07, No Iterations 0
smoothSolver:  Solving for Uy, Initial residual = 3.78074e-07, Final residual = 3.78074e-07, No Iterations 0
smoothSolver:  Solving for Uz, Initial residual = 2.23304e-06, Final residual = 4.44485e-13, No Iterations 1
diagonal:  Solving for rhoE, Initial residual = 0, Final residual = 0, No Iterations 0
smoothSolver:  Solving for e, Initial residual = 1.59857e-07, Final residual = 1.59857e-07, No Iterations 0
smoothSolver:  Solving for omega, Initial residual = 6.21426e-06, Final residual = 1.0513e-12, No Iterations 1
smoothSolver:  Solving for k, Initial residual = 0.0142084, Final residual = 2.51627e-09, No Iterations 1
ExecutionTime = 8.83 s  ClockTime = 9 s

deltaT = 6.62397e-06
Mean and max Courant Numbers = 0.00135699 0.10002
Time = 0.00023517

diagonal:  Solving for rho, Initial residual = 0, Final residual = 0, No Iterations 0
diagonal:  Solving for rhoUx, Initial residual = 0, Final residual = 0, No Iterations 0
diagonal:  Solving for rhoUy, Initial residual = 0, Final residual = 0, No Iterations 0
diagonal:  Solving for rhoUz, Initial residual = 0, Final residual = 0, No Iterations 0
smoothSolver:  Solving for Ux, Initial residual = 3.78366e-07, Final residual = 3.78366e-07, No Iterations 0
smoothSolver:  Solving for Uy, Initial residual = 3.78366e-07, Final residual = 3.78366e-07, No Iterations 0
smoothSolver:  Solving for Uz, Initial residual = 2.17343e-06, Final residual = 4.3244e-13, No Iterations 1
diagonal:  Solving for rhoE, Initial residual = 0, Final residual = 0, No Iterations 0
smoothSolver:  Solving for e, Initial residual = 1.59925e-07, Final residual = 1.59925e-07, No Iterations 0
smoothSolver:  Solving for omega, Initial residual = 6.2217e-06, Final residual = 1.05535e-12, No Iterations 1
smoothSolver:  Solving for k, Initial residual = 0.0138158, Final residual = 2.44612e-09, No Iterations 1
ExecutionTime = 9.04 s  ClockTime = 9 s

deltaT = 6.62397e-06
Mean and max Courant Numbers = 0.00135698 0.10002
Time = 0.000241794

diagonal:  Solving for rho, Initial residual = 0, Final residual = 0, No Iterations 0
diagonal:  Solving for rhoUx, Initial residual = 0, Final residual = 0, No Iterations 0
diagonal:  Solving for rhoUy, Initial residual = 0, Final residual = 0, No Iterations 0
diagonal:  Solving for rhoUz, Initial residual = 0, Final residual = 0, No Iterations 0
smoothSolver:  Solving for Ux, Initial residual = 3.78654e-07, Final residual = 3.78654e-07, No Iterations 0
smoothSolver:  Solving for Uy, Initial residual = 3.78654e-07, Final residual = 3.78654e-07, No Iterations 0
smoothSolver:  Solving for Uz, Initial residual = 2.11709e-06, Final residual = 4.21073e-13, No Iterations 1
diagonal:  Solving for rhoE, Initial residual = 0, Final residual = 0, No Iterations 0
smoothSolver:  Solving for e, Initial residual = 1.59994e-07, Final residual = 1.59994e-07, No Iterations 0
smoothSolver:  Solving for omega, Initial residual = 6.22916e-06, Final residual = 1.05959e-12, No Iterations 1
smoothSolver:  Solving for k, Initial residual = 0.0134453, Final residual = 2.38025e-09, No Iterations 1
ExecutionTime = 9.26 s  ClockTime = 9 s

deltaT = 6.62397e-06
Mean and max Courant Numbers = 0.00135698 0.10002
Time = 0.000248418

diagonal:  Solving for rho, Initial residual = 0, Final residual = 0, No Iterations 0
diagonal:  Solving for rhoUx, Initial residual = 0, Final residual = 0, No Iterations 0
diagonal:  Solving for rhoUy, Initial residual = 0, Final residual = 0, No Iterations 0
diagonal:  Solving for rhoUz, Initial residual = 0, Final residual = 0, No Iterations 0
smoothSolver:  Solving for Ux, Initial residual = 3.7894e-07, Final residual = 3.7894e-07, No Iterations 0
smoothSolver:  Solving for Uy, Initial residual = 3.7894e-07, Final residual = 3.7894e-07, No Iterations 0
smoothSolver:  Solving for Uz, Initial residual = 2.06376e-06, Final residual = 4.10282e-13, No Iterations 1
diagonal:  Solving for rhoE, Initial residual = 0, Final residual = 0, No Iterations 0
smoothSolver:  Solving for e, Initial residual = 1.60063e-07, Final residual = 1.60063e-07, No Iterations 0
smoothSolver:  Solving for omega, Initial residual = 6.23664e-06, Final residual = 1.06403e-12, No Iterations 1
smoothSolver:  Solving for k, Initial residual = 0.0130951, Final residual = 2.31829e-09, No Iterations 1
ExecutionTime = 9.46 s  ClockTime = 10 s

deltaT = 6.62397e-06
Mean and max Courant Numbers = 0.00135697 0.10002
Time = 0.000255042

diagonal:  Solving for rho, Initial residual = 0, Final residual = 0, No Iterations 0
diagonal:  Solving for rhoUx, Initial residual = 0, Final residual = 0, No Iterations 0
diagonal:  Solving for rhoUy, Initial residual = 0, Final residual = 0, No Iterations 0
diagonal:  Solving for rhoUz, Initial residual = 0, Final residual = 0, No Iterations 0
smoothSolver:  Solving for Ux, Initial residual = 3.79224e-07, Final residual = 3.79224e-07, No Iterations 0
smoothSolver:  Solving for Uy, Initial residual = 3.79224e-07, Final residual = 3.79224e-07, No Iterations 0
smoothSolver:  Solving for Uz, Initial residual = 2.01321e-06, Final residual = 4.00137e-13, No Iterations 1
diagonal:  Solving for rhoE, Initial residual = 0, Final residual = 0, No Iterations 0
smoothSolver:  Solving for e, Initial residual = 1.60131e-07, Final residual = 1.60131e-07, No Iterations 0
smoothSolver:  Solving for omega, Initial residual = 6.24413e-06, Final residual = 1.06866e-12, No Iterations 1
smoothSolver:  Solving for k, Initial residual = 0.0127635, Final residual = 2.25994e-09, No Iterations 1
ExecutionTime = 9.67 s  ClockTime = 10 s

deltaT = 6.62397e-06
Mean and max Courant Numbers = 0.00135697 0.10002
Time = 0.000261666

diagonal:  Solving for rho, Initial residual = 0, Final residual = 0, No Iterations 0
diagonal:  Solving for rhoUx, Initial residual = 0, Final residual = 0, No Iterations 0
diagonal:  Solving for rhoUy, Initial residual = 0, Final residual = 0, No Iterations 0
diagonal:  Solving for rhoUz, Initial residual = 0, Final residual = 0, No Iterations 0
smoothSolver:  Solving for Ux, Initial residual = 3.79506e-07, Final residual = 3.79506e-07, No Iterations 0
smoothSolver:  Solving for Uy, Initial residual = 3.79506e-07, Final residual = 3.79506e-07, No Iterations 0
smoothSolver:  Solving for Uz, Initial residual = 1.96522e-06, Final residual = 3.90491e-13, No Iterations 1
diagonal:  Solving for rhoE, Initial residual = 0, Final residual = 0, No Iterations 0
smoothSolver:  Solving for e, Initial residual = 1.602e-07, Final residual = 1.602e-07, No Iterations 0
smoothSolver:  Solving for omega, Initial residual = 6.25164e-06, Final residual = 1.07347e-12, No Iterations 1
smoothSolver:  Solving for k, Initial residual = 0.0124492, Final residual = 2.20491e-09, No Iterations 1
ExecutionTime = 9.87 s  ClockTime = 10 s

deltaT = 6.62397e-06
Mean and max Courant Numbers = 0.00135696 0.10002
Time = 0.00026829

diagonal:  Solving for rho, Initial residual = 0, Final residual = 0, No Iterations 0
diagonal:  Solving for rhoUx, Initial residual = 0, Final residual = 0, No Iterations 0
diagonal:  Solving for rhoUy, Initial residual = 0, Final residual = 0, No Iterations 0
diagonal:  Solving for rhoUz, Initial residual = 0, Final residual = 0, No Iterations 0
smoothSolver:  Solving for Ux, Initial residual = 3.79786e-07, Final residual = 3.79786e-07, No Iterations 0
smoothSolver:  Solving for Uy, Initial residual = 3.79786e-07, Final residual = 3.79786e-07, No Iterations 0
smoothSolver:  Solving for Uz, Initial residual = 1.91961e-06, Final residual = 3.81294e-13, No Iterations 1
diagonal:  Solving for rhoE, Initial residual = 0, Final residual = 0, No Iterations 0
smoothSolver:  Solving for e, Initial residual = 1.60269e-07, Final residual = 1.60269e-07, No Iterations 0
smoothSolver:  Solving for omega, Initial residual = 6.25917e-06, Final residual = 1.07849e-12, No Iterations 1
smoothSolver:  Solving for k, Initial residual = 0.0121508, Final residual = 2.15296e-09, No Iterations 1
ExecutionTime = 10.06 s  ClockTime = 10 s

deltaT = 6.62397e-06
Mean and max Courant Numbers = 0.00135696 0.10002
Time = 0.000274914

diagonal:  Solving for rho, Initial residual = 0, Final residual = 0, No Iterations 0
diagonal:  Solving for rhoUx, Initial residual = 0, Final residual = 0, No Iterations 0
diagonal:  Solving for rhoUy, Initial residual = 0, Final residual = 0, No Iterations 0
diagonal:  Solving for rhoUz, Initial residual = 0, Final residual = 0, No Iterations 0
smoothSolver:  Solving for Ux, Initial residual = 3.80065e-07, Final residual = 3.80065e-07, No Iterations 0
smoothSolver:  Solving for Uy, Initial residual = 3.80065e-07, Final residual = 3.80065e-07, No Iterations 0
smoothSolver:  Solving for Uz, Initial residual = 1.87619e-06, Final residual = 3.72427e-13, No Iterations 1
diagonal:  Solving for rhoE, Initial residual = 0, Final residual = 0, No Iterations 0
smoothSolver:  Solving for e, Initial residual = 1.60339e-07, Final residual = 1.60339e-07, No Iterations 0
smoothSolver:  Solving for omega, Initial residual = 6.26671e-06, Final residual = 1.0837e-12, No Iterations 1
smoothSolver:  Solving for k, Initial residual = 0.0118671, Final residual = 2.10388e-09, No Iterations 1
ExecutionTime = 10.28 s  ClockTime = 10 s

deltaT = 6.62397e-06
Mean and max Courant Numbers = 0.00135695 0.10002
Time = 0.000281538

diagonal:  Solving for rho, Initial residual = 0, Final residual = 0, No Iterations 0
diagonal:  Solving for rhoUx, Initial residual = 0, Final residual = 0, No Iterations 0
diagonal:  Solving for rhoUy, Initial residual = 0, Final residual = 0, No Iterations 0
diagonal:  Solving for rhoUz, Initial residual = 0, Final residual = 0, No Iterations 0
smoothSolver:  Solving for Ux, Initial residual = 3.80343e-07, Final residual = 3.80343e-07, No Iterations 0
smoothSolver:  Solving for Uy, Initial residual = 3.80343e-07, Final residual = 3.80343e-07, No Iterations 0
smoothSolver:  Solving for Uz, Initial residual = 1.83483e-06, Final residual = 3.64196e-13, No Iterations 1
diagonal:  Solving for rhoE, Initial residual = 0, Final residual = 0, No Iterations 0
smoothSolver:  Solving for e, Initial residual = 1.60408e-07, Final residual = 1.60408e-07, No Iterations 0
smoothSolver:  Solving for omega, Initial residual = 6.27427e-06, Final residual = 1.08911e-12, No Iterations 1
smoothSolver:  Solving for k, Initial residual = 0.011597, Final residual = 2.05743e-09, No Iterations 1
ExecutionTime = 10.51 s  ClockTime = 11 s

deltaT = 6.62397e-06
Mean and max Courant Numbers = 0.00135695 0.10002
Time = 0.000288162

diagonal:  Solving for rho, Initial residual = 0, Final residual = 0, No Iterations 0
diagonal:  Solving for rhoUx, Initial residual = 0, Final residual = 0, No Iterations 0
diagonal:  Solving for rhoUy, Initial residual = 0, Final residual = 0, No Iterations 0
diagonal:  Solving for rhoUz, Initial residual = 0, Final residual = 0, No Iterations 0
smoothSolver:  Solving for Ux, Initial residual = 3.80619e-07, Final residual = 3.80619e-07, No Iterations 0
smoothSolver:  Solving for Uy, Initial residual = 3.80619e-07, Final residual = 3.80619e-07, No Iterations 0
smoothSolver:  Solving for Uz, Initial residual = 1.79537e-06, Final residual = 3.56176e-13, No Iterations 1
diagonal:  Solving for rhoE, Initial residual = 0, Final residual = 0, No Iterations 0
smoothSolver:  Solving for e, Initial residual = 1.60478e-07, Final residual = 1.60478e-07, No Iterations 0
smoothSolver:  Solving for omega, Initial residual = 6.28185e-06, Final residual = 1.09471e-12, No Iterations 1
smoothSolver:  Solving for k, Initial residual = 0.0113397, Final residual = 2.01345e-09, No Iterations 1
ExecutionTime = 10.71 s  ClockTime = 11 s

deltaT = 6.62397e-06
Mean and max Courant Numbers = 0.00135694 0.10002
Time = 0.000294786

diagonal:  Solving for rho, Initial residual = 0, Final residual = 0, No Iterations 0
diagonal:  Solving for rhoUx, Initial residual = 0, Final residual = 0, No Iterations 0
diagonal:  Solving for rhoUy, Initial residual = 0, Final residual = 0, No Iterations 0
diagonal:  Solving for rhoUz, Initial residual = 0, Final residual = 0, No Iterations 0
smoothSolver:  Solving for Ux, Initial residual = 3.80894e-07, Final residual = 3.80894e-07, No Iterations 0
smoothSolver:  Solving for Uy, Initial residual = 3.80894e-07, Final residual = 3.80894e-07, No Iterations 0
smoothSolver:  Solving for Uz, Initial residual = 1.75769e-06, Final residual = 3.48577e-13, No Iterations 1
diagonal:  Solving for rhoE, Initial residual = 0, Final residual = 0, No Iterations 0
smoothSolver:  Solving for e, Initial residual = 1.60547e-07, Final residual = 1.60547e-07, No Iterations 0
smoothSolver:  Solving for omega, Initial residual = 6.28945e-06, Final residual = 1.10051e-12, No Iterations 1
smoothSolver:  Solving for k, Initial residual = 0.0110942, Final residual = 1.97176e-09, No Iterations 1
ExecutionTime = 10.9 s  ClockTime = 11 s

deltaT = 6.62397e-06
Mean and max Courant Numbers = 0.00135694 0.10002
Time = 0.00030141

diagonal:  Solving for rho, Initial residual = 0, Final residual = 0, No Iterations 0
diagonal:  Solving for rhoUx, Initial residual = 0, Final residual = 0, No Iterations 0
diagonal:  Solving for rhoUy, Initial residual = 0, Final residual = 0, No Iterations 0
diagonal:  Solving for rhoUz, Initial residual = 0, Final residual = 0, No Iterations 0
smoothSolver:  Solving for Ux, Initial residual = 3.81168e-07, Final residual = 3.81168e-07, No Iterations 0
smoothSolver:  Solving for Uy, Initial residual = 3.81168e-07, Final residual = 3.81168e-07, No Iterations 0
smoothSolver:  Solving for Uz, Initial residual = 1.72166e-06, Final residual = 3.41273e-13, No Iterations 1
diagonal:  Solving for rhoE, Initial residual = 0, Final residual = 0, No Iterations 0
smoothSolver:  Solving for e, Initial residual = 1.60617e-07, Final residual = 1.60617e-07, No Iterations 0
smoothSolver:  Solving for omega, Initial residual = 6.29707e-06, Final residual = 1.10651e-12, No Iterations 1
smoothSolver:  Solving for k, Initial residual = 0.0108597, Final residual = 1.93221e-09, No Iterations 1
ExecutionTime = 11.11 s  ClockTime = 11 s

deltaT = 6.62397e-06
Mean and max Courant Numbers = 0.00135693 0.10002
Time = 0.000308034

diagonal:  Solving for rho, Initial residual = 0, Final residual = 0, No Iterations 0
diagonal:  Solving for rhoUx, Initial residual = 0, Final residual = 0, No Iterations 0
diagonal:  Solving for rhoUy, Initial residual = 0, Final residual = 0, No Iterations 0
diagonal:  Solving for rhoUz, Initial residual = 0, Final residual = 0, No Iterations 0
smoothSolver:  Solving for Ux, Initial residual = 3.81442e-07, Final residual = 3.81442e-07, No Iterations 0
smoothSolver:  Solving for Uy, Initial residual = 3.81442e-07, Final residual = 3.81442e-07, No Iterations 0
smoothSolver:  Solving for Uz, Initial residual = 1.6872e-06, Final residual = 3.34321e-13, No Iterations 1
diagonal:  Solving for rhoE, Initial residual = 0, Final residual = 0, No Iterations 0
smoothSolver:  Solving for e, Initial residual = 1.60687e-07, Final residual = 1.60687e-07, No Iterations 0
smoothSolver:  Solving for omega, Initial residual = 6.3047e-06, Final residual = 1.11271e-12, No Iterations 1
smoothSolver:  Solving for k, Initial residual = 0.0106356, Final residual = 1.89467e-09, No Iterations 1
ExecutionTime = 11.32 s  ClockTime = 11 s

deltaT = 6.62397e-06
Mean and max Courant Numbers = 0.00135692 0.10002
Time = 0.000314658

diagonal:  Solving for rho, Initial residual = 0, Final residual = 0, No Iterations 0
diagonal:  Solving for rhoUx, Initial residual = 0, Final residual = 0, No Iterations 0
diagonal:  Solving for rhoUy, Initial residual = 0, Final residual = 0, No Iterations 0
diagonal:  Solving for rhoUz, Initial residual = 0, Final residual = 0, No Iterations 0
smoothSolver:  Solving for Ux, Initial residual = 3.81715e-07, Final residual = 3.81715e-07, No Iterations 0
smoothSolver:  Solving for Uy, Initial residual = 3.81715e-07, Final residual = 3.81715e-07, No Iterations 0
smoothSolver:  Solving for Uz, Initial residual = 1.65418e-06, Final residual = 3.27679e-13, No Iterations 1
diagonal:  Solving for rhoE, Initial residual = 0, Final residual = 0, No Iterations 0
smoothSolver:  Solving for e, Initial residual = 1.60758e-07, Final residual = 1.60758e-07, No Iterations 0
smoothSolver:  Solving for omega, Initial residual = 6.31235e-06, Final residual = 1.11911e-12, No Iterations 1
smoothSolver:  Solving for k, Initial residual = 0.0104211, Final residual = 1.85899e-09, No Iterations 1
ExecutionTime = 11.54 s  ClockTime = 12 s

deltaT = 6.62397e-06
Mean and max Courant Numbers = 0.00135692 0.10002
Time = 0.000321282

diagonal:  Solving for rho, Initial residual = 0, Final residual = 0, No Iterations 0
diagonal:  Solving for rhoUx, Initial residual = 0, Final residual = 0, No Iterations 0
diagonal:  Solving for rhoUy, Initial residual = 0, Final residual = 0, No Iterations 0
diagonal:  Solving for rhoUz, Initial residual = 0, Final residual = 0, No Iterations 0
smoothSolver:  Solving for Ux, Initial residual = 3.81988e-07, Final residual = 3.81988e-07, No Iterations 0
smoothSolver:  Solving for Uy, Initial residual = 3.81988e-07, Final residual = 3.81988e-07, No Iterations 0
smoothSolver:  Solving for Uz, Initial residual = 1.62253e-06, Final residual = 3.21312e-13, No Iterations 1
diagonal:  Solving for rhoE, Initial residual = 0, Final residual = 0, No Iterations 0
smoothSolver:  Solving for e, Initial residual = 1.60828e-07, Final residual = 1.60828e-07, No Iterations 0
smoothSolver:  Solving for omega, Initial residual = 6.32002e-06, Final residual = 1.12572e-12, No Iterations 1
smoothSolver:  Solving for k, Initial residual = 0.0102156, Final residual = 1.82509e-09, No Iterations 1
ExecutionTime = 11.76 s  ClockTime = 12 s

deltaT = 6.62397e-06
Mean and max Courant Numbers = 0.00135691 0.10002
Time = 0.000327906

diagonal:  Solving for rho, Initial residual = 0, Final residual = 0, No Iterations 0
diagonal:  Solving for rhoUx, Initial residual = 0, Final residual = 0, No Iterations 0
diagonal:  Solving for rhoUy, Initial residual = 0, Final residual = 0, No Iterations 0
diagonal:  Solving for rhoUz, Initial residual = 0, Final residual = 0, No Iterations 0
smoothSolver:  Solving for Ux, Initial residual = 3.8226e-07, Final residual = 3.8226e-07, No Iterations 0
smoothSolver:  Solving for Uy, Initial residual = 3.8226e-07, Final residual = 3.8226e-07, No Iterations 0
smoothSolver:  Solving for Uz, Initial residual = 1.59217e-06, Final residual = 3.15152e-13, No Iterations 1
diagonal:  Solving for rhoE, Initial residual = 0, Final residual = 0, No Iterations 0
smoothSolver:  Solving for e, Initial residual = 1.60898e-07, Final residual = 1.60898e-07, No Iterations 0
smoothSolver:  Solving for omega, Initial residual = 6.32771e-06, Final residual = 1.13252e-12, No Iterations 1
smoothSolver:  Solving for k, Initial residual = 0.0100186, Final residual = 1.79282e-09, No Iterations 1
ExecutionTime = 11.98 s  ClockTime = 12 s

deltaT = 6.62397e-06
Mean and max Courant Numbers = 0.00135691 0.10002
Time = 0.00033453

diagonal:  Solving for rho, Initial residual = 0, Final residual = 0, No Iterations 0
diagonal:  Solving for rhoUx, Initial residual = 0, Final residual = 0, No Iterations 0
diagonal:  Solving for rhoUy, Initial residual = 0, Final residual = 0, No Iterations 0
diagonal:  Solving for rhoUz, Initial residual = 0, Final residual = 0, No Iterations 0
smoothSolver:  Solving for Ux, Initial residual = 3.82532e-07, Final residual = 3.82532e-07, No Iterations 0
smoothSolver:  Solving for Uy, Initial residual = 3.82532e-07, Final residual = 3.82532e-07, No Iterations 0
smoothSolver:  Solving for Uz, Initial residual = 1.56301e-06, Final residual = 3.09247e-13, No Iterations 1
diagonal:  Solving for rhoE, Initial residual = 0, Final residual = 0, No Iterations 0
smoothSolver:  Solving for e, Initial residual = 1.60969e-07, Final residual = 1.60969e-07, No Iterations 0
smoothSolver:  Solving for omega, Initial residual = 6.33541e-06, Final residual = 1.13953e-12, No Iterations 1
smoothSolver:  Solving for k, Initial residual = 0.00982959, Final residual = 1.76211e-09, No Iterations 1
ExecutionTime = 12.18 s  ClockTime = 12 s

deltaT = 6.62397e-06
Mean and max Courant Numbers = 0.0013569 0.10002
Time = 0.000341154

diagonal:  Solving for rho, Initial residual = 0, Final residual = 0, No Iterations 0
diagonal:  Solving for rhoUx, Initial residual = 0, Final residual = 0, No Iterations 0
diagonal:  Solving for rhoUy, Initial residual = 0, Final residual = 0, No Iterations 0
diagonal:  Solving for rhoUz, Initial residual = 0, Final residual = 0, No Iterations 0
smoothSolver:  Solving for Ux, Initial residual = 3.82804e-07, Final residual = 3.82804e-07, No Iterations 0
smoothSolver:  Solving for Uy, Initial residual = 3.82804e-07, Final residual = 3.82804e-07, No Iterations 0
smoothSolver:  Solving for Uz, Initial residual = 1.53498e-06, Final residual = 3.036e-13, No Iterations 1
diagonal:  Solving for rhoE, Initial residual = 0, Final residual = 0, No Iterations 0
smoothSolver:  Solving for e, Initial residual = 1.6104e-07, Final residual = 1.6104e-07, No Iterations 0
smoothSolver:  Solving for omega, Initial residual = 6.34314e-06, Final residual = 1.14674e-12, No Iterations 1
smoothSolver:  Solving for k, Initial residual = 0.00964806, Final residual = 1.73286e-09, No Iterations 1
ExecutionTime = 12.38 s  ClockTime = 12 s

deltaT = 6.62397e-06
Mean and max Courant Numbers = 0.0013569 0.10002
Time = 0.000347778

diagonal:  Solving for rho, Initial residual = 0, Final residual = 0, No Iterations 0
diagonal:  Solving for rhoUx, Initial residual = 0, Final residual = 0, No Iterations 0
diagonal:  Solving for rhoUy, Initial residual = 0, Final residual = 0, No Iterations 0
diagonal:  Solving for rhoUz, Initial residual = 0, Final residual = 0, No Iterations 0
smoothSolver:  Solving for Ux, Initial residual = 3.83076e-07, Final residual = 3.83076e-07, No Iterations 0
smoothSolver:  Solving for Uy, Initial residual = 3.83076e-07, Final residual = 3.83076e-07, No Iterations 0
smoothSolver:  Solving for Uz, Initial residual = 1.50803e-06, Final residual = 2.98165e-13, No Iterations 1
diagonal:  Solving for rhoE, Initial residual = 0, Final residual = 0, No Iterations 0
smoothSolver:  Solving for e, Initial residual = 1.61111e-07, Final residual = 1.61111e-07, No Iterations 0
smoothSolver:  Solving for omega, Initial residual = 6.35088e-06, Final residual = 1.15416e-12, No Iterations 1
smoothSolver:  Solving for k, Initial residual = 0.00947359, Final residual = 1.70498e-09, No Iterations 1
ExecutionTime = 12.57 s  ClockTime = 13 s

deltaT = 6.62397e-06
Mean and max Courant Numbers = 0.00135689 0.10002
Time = 0.000354402

diagonal:  Solving for rho, Initial residual = 0, Final residual = 0, No Iterations 0
diagonal:  Solving for rhoUx, Initial residual = 0, Final residual = 0, No Iterations 0
diagonal:  Solving for rhoUy, Initial residual = 0, Final residual = 0, No Iterations 0
diagonal:  Solving for rhoUz, Initial residual = 0, Final residual = 0, No Iterations 0
smoothSolver:  Solving for Ux, Initial residual = 3.83348e-07, Final residual = 3.83348e-07, No Iterations 0
smoothSolver:  Solving for Uy, Initial residual = 3.83348e-07, Final residual = 3.83348e-07, No Iterations 0
smoothSolver:  Solving for Uz, Initial residual = 1.48208e-06, Final residual = 2.92963e-13, No Iterations 1
diagonal:  Solving for rhoE, Initial residual = 0, Final residual = 0, No Iterations 0
smoothSolver:  Solving for e, Initial residual = 1.61182e-07, Final residual = 1.61182e-07, No Iterations 0
smoothSolver:  Solving for omega, Initial residual = 6.35864e-06, Final residual = 1.16178e-12, No Iterations 1
smoothSolver:  Solving for k, Initial residual = 0.00930578, Final residual = 1.67841e-09, No Iterations 1
ExecutionTime = 12.81 s  ClockTime = 13 s

deltaT = 6.62397e-06
Mean and max Courant Numbers = 0.00135689 0.10002
Time = 0.000361026

diagonal:  Solving for rho, Initial residual = 0, Final residual = 0, No Iterations 0
diagonal:  Solving for rhoUx, Initial residual = 0, Final residual = 0, No Iterations 0
diagonal:  Solving for rhoUy, Initial residual = 0, Final residual = 0, No Iterations 0
diagonal:  Solving for rhoUz, Initial residual = 0, Final residual = 0, No Iterations 0
smoothSolver:  Solving for Ux, Initial residual = 3.8362e-07, Final residual = 3.8362e-07, No Iterations 0
smoothSolver:  Solving for Uy, Initial residual = 3.8362e-07, Final residual = 3.8362e-07, No Iterations 0
smoothSolver:  Solving for Uz, Initial residual = 1.4571e-06, Final residual = 2.87883e-13, No Iterations 1
diagonal:  Solving for rhoE, Initial residual = 0, Final residual = 0, No Iterations 0
smoothSolver:  Solving for e, Initial residual = 1.61253e-07, Final residual = 1.61253e-07, No Iterations 0
smoothSolver:  Solving for omega, Initial residual = 6.36642e-06, Final residual = 1.16961e-12, No Iterations 1
smoothSolver:  Solving for k, Initial residual = 0.00914425, Final residual = 1.65306e-09, No Iterations 1
ExecutionTime = 13.02 s  ClockTime = 13 s

deltaT = 6.62397e-06
Mean and max Courant Numbers = 0.00135688 0.10002
Time = 0.00036765

diagonal:  Solving for rho, Initial residual = 0, Final residual = 0, No Iterations 0
diagonal:  Solving for rhoUx, Initial residual = 0, Final residual = 0, No Iterations 0
diagonal:  Solving for rhoUy, Initial residual = 0, Final residual = 0, No Iterations 0
diagonal:  Solving for rhoUz, Initial residual = 0, Final residual = 0, No Iterations 0
smoothSolver:  Solving for Ux, Initial residual = 3.83892e-07, Final residual = 3.83892e-07, No Iterations 0
smoothSolver:  Solving for Uy, Initial residual = 3.83892e-07, Final residual = 3.83892e-07, No Iterations 0
smoothSolver:  Solving for Uz, Initial residual = 1.43301e-06, Final residual = 2.83033e-13, No Iterations 1
diagonal:  Solving for rhoE, Initial residual = 0, Final residual = 0, No Iterations 0
smoothSolver:  Solving for e, Initial residual = 1.61325e-07, Final residual = 1.61325e-07, No Iterations 0
smoothSolver:  Solving for omega, Initial residual = 6.37421e-06, Final residual = 1.17765e-12, No Iterations 1
smoothSolver:  Solving for k, Initial residual = 0.00898866, Final residual = 1.62887e-09, No Iterations 1
ExecutionTime = 13.22 s  ClockTime = 13 s

deltaT = 6.62397e-06
Mean and max Courant Numbers = 0.00135687 0.10002
Time = 0.000374274

diagonal:  Solving for rho, Initial residual = 0, Final residual = 0, No Iterations 0
diagonal:  Solving for rhoUx, Initial residual = 0, Final residual = 0, No Iterations 0
diagonal:  Solving for rhoUy, Initial residual = 0, Final residual = 0, No Iterations 0
diagonal:  Solving for rhoUz, Initial residual = 0, Final residual = 0, No Iterations 0
smoothSolver:  Solving for Ux, Initial residual = 3.84164e-07, Final residual = 3.84164e-07, No Iterations 0
smoothSolver:  Solving for Uy, Initial residual = 3.84164e-07, Final residual = 3.84164e-07, No Iterations 0
smoothSolver:  Solving for Uz, Initial residual = 1.40978e-06, Final residual = 2.78343e-13, No Iterations 1
diagonal:  Solving for rhoE, Initial residual = 0, Final residual = 0, No Iterations 0
smoothSolver:  Solving for e, Initial residual = 1.61397e-07, Final residual = 1.61397e-07, No Iterations 0
smoothSolver:  Solving for omega, Initial residual = 6.38203e-06, Final residual = 1.1859e-12, No Iterations 1
smoothSolver:  Solving for k, Initial residual = 0.00883868, Final residual = 1.60578e-09, No Iterations 1
ExecutionTime = 13.43 s  ClockTime = 14 s

deltaT = 6.62397e-06
Mean and max Courant Numbers = 0.00135687 0.10002
Time = 0.000380898

diagonal:  Solving for rho, Initial residual = 0, Final residual = 0, No Iterations 0
diagonal:  Solving for rhoUx, Initial residual = 0, Final residual = 0, No Iterations 0
[...]
diagonal:  Solving for rhoUz, Initial residual = 0, Final residual = 0, No Iterations 0
smoothSolver:  Solving for Ux, Initial residual = 3.85256e-07, Final residual = 3.85256e-07, No Iterations 0
smoothSolver:  Solving for Uy, Initial residual = 3.85256e-07, Final residual = 3.85256e-07, No Iterations 0
smoothSolver:  Solving for Uz, Initial residual = 1.32458e-06, Final residual = 2.61122e-13, No Iterations 1
diagonal:  Solving for rhoE, Initial residual = 0, Final residual = 0, No Iterations 0
smoothSolver:  Solving for e, Initial residual = 1.61685e-07, Final residual = 1.61685e-07, No Iterations 0
smoothSolver:  Solving for omega, Initial residual = 6.41347e-06, Final residual = 1.221e-12, No Iterations 1
smoothSolver:  Solving for k, Initial residual = 0.00828931, Final residual = 1.52335e-09, No Iterations 1
ExecutionTime = 14.3 s  ClockTime = 14 s

deltaT = 6.62397e-06
Mean and max Courant Numbers = 0.00135684 0.10002
Time = 0.000407394

diagonal:  Solving for rho, Initial residual = 0, Final residual = 0, No Iterations 0
diagonal:  Solving for rhoUx, Initial residual = 0, Final residual = 0, No Iterations 0
diagonal:  Solving for rhoUy, Initial residual = 0, Final residual = 0, No Iterations 0
diagonal:  Solving for rhoUz, Initial residual = 0, Final residual = 0, No Iterations 0
smoothSolver:  Solving for Ux, Initial residual = 3.8553e-07, Final residual = 3.8553e-07, No Iterations 0
smoothSolver:  Solving for Uy, Initial residual = 3.8553e-07, Final residual = 3.8553e-07, No Iterations 0
smoothSolver:  Solving for Uz, Initial residual = 1.30502e-06, Final residual = 2.57194e-13, No Iterations 1
diagonal:  Solving for rhoE, Initial residual = 0, Final residual = 0, No Iterations 0
smoothSolver:  Solving for e, Initial residual = 1.61757e-07, Final residual = 1.61757e-07, No Iterations 0
smoothSolver:  Solving for omega, Initial residual = 6.42138e-06, Final residual = 1.2303e-12, No Iterations 1
smoothSolver:  Solving for k, Initial residual = 0.00816334, Final residual = 1.50498e-09, No Iterations 1
ExecutionTime = 14.49 s  ClockTime = 15 s

deltaT = 6.62397e-06
Mean and max Courant Numbers = 0.00135684 0.10002
Time = 0.000414018

diagonal:  Solving for rho, Initial residual = 0, Final residual = 0, No Iterations 0
diagonal:  Solving for rhoUx, Initial residual = 0, Final residual = 0, No Iterations 0
diagonal:  Solving for rhoUy, Initial residual = 0, Final residual = 0, No Iterations 0
diagonal:  Solving for rhoUz, Initial residual = 0, Final residual = 0, No Iterations 0
smoothSolver:  Solving for Ux, Initial residual = 3.85805e-07, Final residual = 3.85805e-07, No Iterations 0
smoothSolver:  Solving for Uy, Initial residual = 3.85805e-07, Final residual = 3.85805e-07, No Iterations 0
smoothSolver:  Solving for Uz, Initial residual = 1.28609e-06, Final residual = 2.53369e-13, No Iterations 1
diagonal:  Solving for rhoE, Initial residual = 0, Final residual = 0, No Iterations 0
smoothSolver:  Solving for e, Initial residual = 1.6183e-07, Final residual = 1.6183e-07, No Iterations 0
smoothSolver:  Solving for omega, Initial residual = 6.42931e-06, Final residual = 1.23983e-12, No Iterations 1
smoothSolver:  Solving for k, Initial residual = 0.00804149, Final residual = 1.48741e-09, No Iterations 1
ExecutionTime = 14.7 s  ClockTime = 15 s

deltaT = 6.62397e-06
Mean and max Courant Numbers = 0.00135683 0.10002
Time = 0.000420642

diagonal:  Solving for rho, Initial residual = 0, Final residual = 0, No Iterations 0
diagonal:  Solving for rhoUx, Initial residual = 0, Final residual = 0, No Iterations 0
diagonal:  Solving for rhoUy, Initial residual = 0, Final residual = 0, No Iterations 0
diagonal:  Solving for rhoUz, Initial residual = 0, Final residual = 0, No Iterations 0
smoothSolver:  Solving for Ux, Initial residual = 3.8608e-07, Final residual = 3.8608e-07, No Iterations 0
smoothSolver:  Solving for Uy, Initial residual = 3.8608e-07, Final residual = 3.8608e-07, No Iterations 0
smoothSolver:  Solving for Uz, Initial residual = 1.26775e-06, Final residual = 2.49651e-13, No Iterations 1
diagonal:  Solving for rhoE, Initial residual = 0, Final residual = 0, No Iterations 0
smoothSolver:  Solving for e, Initial residual = 1.61903e-07, Final residual = 1.61903e-07, No Iterations 0
smoothSolver:  Solving for omega, Initial residual = 6.43725e-06, Final residual = 1.24957e-12, No Iterations 1
smoothSolver:  Solving for k, Initial residual = 0.00792354, Final residual = 1.47061e-09, No Iterations 1
ExecutionTime = 14.9 s  ClockTime = 15 s

deltaT = 6.62397e-06
Mean and max Courant Numbers = 0.00135683 0.10002
Time = 0.000427266

diagonal:  Solving for rho, Initial residual = 0, Final residual = 0, No Iterations 0
diagonal:  Solving for rhoUx, Initial residual = 0, Final residual = 0, No Iterations 0
diagonal:  Solving for rhoUy, Initial residual = 0, Final residual = 0, No Iterations 0
diagonal:  Solving for rhoUz, Initial residual = 0, Final residual = 0, No Iterations 0
smoothSolver:  Solving for Ux, Initial residual = 3.86356e-07, Final residual = 3.86356e-07, No Iterations 0
smoothSolver:  Solving for Uy, Initial residual = 3.86356e-07, Final residual = 3.86356e-07, No Iterations 0
smoothSolver:  Solving for Uz, Initial residual = 1.24999e-06, Final residual = 2.46058e-13, No Iterations 1
diagonal:  Solving for rhoE, Initial residual = 0, Final residual = 0, No Iterations 0
smoothSolver:  Solving for e, Initial residual = 1.61975e-07, Final residual = 1.61975e-07, No Iterations 0
smoothSolver:  Solving for omega, Initial residual = 6.44522e-06, Final residual = 1.25952e-12, No Iterations 1
smoothSolver:  Solving for k, Initial residual = 0.00780933, Final residual = 1.45456e-09, No Iterations 1
ExecutionTime = 15.15 s  ClockTime = 15 s

deltaT = 6.62397e-06
Mean and max Courant Numbers = 0.00135682 0.10002
Time = 0.00043389

diagonal:  Solving for rho, Initial residual = 0, Final residual = 0, No Iterations 0
diagonal:  Solving for rhoUx, Initial residual = 0, Final residual = 0, No Iterations 0
diagonal:  Solving for rhoUy, Initial residual = 0, Final residual = 0, No Iterations 0
diagonal:  Solving for rhoUz, Initial residual = 0, Final residual = 0, No Iterations 0
smoothSolver:  Solving for Ux, Initial residual = 3.86632e-07, Final residual = 3.86632e-07, No Iterations 0
smoothSolver:  Solving for Uy, Initial residual = 3.86632e-07, Final residual = 3.86632e-07, No Iterations 0
smoothSolver:  Solving for Uz, Initial residual = 1.23278e-06, Final residual = 2.42573e-13, No Iterations 1
diagonal:  Solving for rhoE, Initial residual = 0, Final residual = 0, No Iterations 0
smoothSolver:  Solving for e, Initial residual = 1.62049e-07, Final residual = 1.62049e-07, No Iterations 0
smoothSolver:  Solving for omega, Initial residual = 6.4532e-06, Final residual = 1.26969e-12, No Iterations 1
smoothSolver:  Solving for k, Initial residual = 0.00769867, Final residual = 1.43922e-09, No Iterations 1
ExecutionTime = 15.35 s  ClockTime = 15 s

deltaT = 6.62397e-06
Mean and max Courant Numbers = 0.00135681 0.10002
Time = 0.000440514

diagonal:  Solving for rho, Initial residual = 0, Final residual = 0, No Iterations 0
diagonal:  Solving for rhoUx, Initial residual = 0, Final residual = 0, No Iterations 0
diagonal:  Solving for rhoUy, Initial residual = 0, Final residual = 0, No Iterations 0
diagonal:  Solving for rhoUz, Initial residual = 0, Final residual = 0, No Iterations 0
smoothSolver:  Solving for Ux, Initial residual = 3.8691e-07, Final residual = 3.8691e-07, No Iterations 0
smoothSolver:  Solving for Uy, Initial residual = 3.8691e-07, Final residual = 3.8691e-07, No Iterations 0
smoothSolver:  Solving for Uz, Initial residual = 1.21608e-06, Final residual = 2.39253e-13, No Iterations 1
diagonal:  Solving for rhoE, Initial residual = 0, Final residual = 0, No Iterations 0
smoothSolver:  Solving for e, Initial residual = 1.62122e-07, Final residual = 1.62122e-07, No Iterations 0
smoothSolver:  Solving for omega, Initial residual = 6.46121e-06, Final residual = 1.28009e-12, No Iterations 1
smoothSolver:  Solving for k, Initial residual = 0.0075914, Final residual = 1.42453e-09, No Iterations 1
ExecutionTime = 15.57 s  ClockTime = 16 s

deltaT = 6.62397e-06
Mean and max Courant Numbers = 0.00135681 0.10002
Time = 0.000447138

diagonal:  Solving for rho, Initial residual = 0, Final residual = 0, No Iterations 0
diagonal:  Solving for rhoUx, Initial residual = 0, Final residual = 0, No Iterations 0
diagonal:  Solving for rhoUy, Initial residual = 0, Final residual = 0, No Iterations 0
diagonal:  Solving for rhoUz, Initial residual = 0, Final residual = 0, No Iterations 0
smoothSolver:  Solving for Ux, Initial residual = 3.87188e-07, Final residual = 3.87188e-07, No Iterations 0
smoothSolver:  Solving for Uy, Initial residual = 3.87188e-07, Final residual = 3.87188e-07, No Iterations 0
smoothSolver:  Solving for Uz, Initial residual = 1.19988e-06, Final residual = 2.35976e-13, No Iterations 1
diagonal:  Solving for rhoE, Initial residual = 0, Final residual = 0, No Iterations 0
smoothSolver:  Solving for e, Initial residual = 1.62195e-07, Final residual = 1.62195e-07, No Iterations 0
smoothSolver:  Solving for omega, Initial residual = 6.46923e-06, Final residual = 1.2907e-12, No Iterations 1
smoothSolver:  Solving for k, Initial residual = 0.00748736, Final residual = 1.4105e-09, No Iterations 1
ExecutionTime = 15.78 s  ClockTime = 16 s

deltaT = 6.62397e-06
Mean and max Courant Numbers = 0.0013568 0.10002
Time = 0.000453761

diagonal:  Solving for rho, Initial residual = 0, Final residual = 0, No Iterations 0
diagonal:  Solving for rhoUx, Initial residual = 0, Final residual = 0, No Iterations 0
diagonal:  Solving for rhoUy, Initial residual = 0, Final residual = 0, No Iterations 0
diagonal:  Solving for rhoUz, Initial residual = 0, Final residual = 0, No Iterations 0
smoothSolver:  Solving for Ux, Initial residual = 3.87466e-07, Final residual = 3.87466e-07, No Iterations 0
smoothSolver:  Solving for Uy, Initial residual = 3.87466e-07, Final residual = 3.87466e-07, No Iterations 0
smoothSolver:  Solving for Uz, Initial residual = 1.18416e-06, Final residual = 2.32782e-13, No Iterations 1
diagonal:  Solving for rhoE, Initial residual = 0, Final residual = 0, No Iterations 0
smoothSolver:  Solving for e, Initial residual = 1.62269e-07, Final residual = 1.62269e-07, No Iterations 0
smoothSolver:  Solving for omega, Initial residual = 6.47727e-06, Final residual = 1.30153e-12, No Iterations 1
smoothSolver:  Solving for k, Initial residual = 0.00738643, Final residual = 1.39707e-09, No Iterations 1
ExecutionTime = 15.99 s  ClockTime = 16 s

deltaT = 6.62397e-06
Mean and max Courant Numbers = 0.00135679 0.10002
Time = 0.000460385

diagonal:  Solving for rho, Initial residual = 0, Final residual = 0, No Iterations 0
diagonal:  Solving for rhoUx, Initial residual = 0, Final residual = 0, No Iterations 0
diagonal:  Solving for rhoUy, Initial residual = 0, Final residual = 0, No Iterations 0
diagonal:  Solving for rhoUz, Initial residual = 0, Final residual = 0, No Iterations 0
smoothSolver:  Solving for Ux, Initial residual = 3.87746e-07, Final residual = 3.87746e-07, No Iterations 0
smoothSolver:  Solving for Uy, Initial residual = 3.87746e-07, Final residual = 3.87746e-07, No Iterations 0
smoothSolver:  Solving for Uz, Initial residual = 1.16889e-06, Final residual = 2.29684e-13, No Iterations 1
diagonal:  Solving for rhoE, Initial residual = 0, Final residual = 0, No Iterations 0
smoothSolver:  Solving for e, Initial residual = 1.62343e-07, Final residual = 1.62343e-07, No Iterations 0
smoothSolver:  Solving for omega, Initial residual = 6.48533e-06, Final residual = 1.31259e-12, No Iterations 1
smoothSolver:  Solving for k, Initial residual = 0.00728845, Final residual = 1.38425e-09, No Iterations 1
ExecutionTime = 16.23 s  ClockTime = 16 s

deltaT = 6.62397e-06
Mean and max Courant Numbers = 0.00135679 0.10002
Time = 0.000467009

diagonal:  Solving for rho, Initial residual = 0, Final residual = 0, No Iterations 0
diagonal:  Solving for rhoUx, Initial residual = 0, Final residual = 0, No Iterations 0
diagonal:  Solving for rhoUy, Initial residual = 0, Final residual = 0, No Iterations 0
diagonal:  Solving for rhoUz, Initial residual = 0, Final residual = 0, No Iterations 0
smoothSolver:  Solving for Ux, Initial residual = 3.88026e-07, Final residual = 3.88026e-07, No Iterations 0
smoothSolver:  Solving for Uy, Initial residual = 3.88026e-07, Final residual = 3.88026e-07, No Iterations 0
smoothSolver:  Solving for Uz, Initial residual = 1.15406e-06, Final residual = 2.26725e-13, No Iterations 1
diagonal:  Solving for rhoE, Initial residual = 0, Final residual = 0, No Iterations 0
smoothSolver:  Solving for e, Initial residual = 1.62417e-07, Final residual = 1.62417e-07, No Iterations 0
smoothSolver:  Solving for omega, Initial residual = 6.49341e-06, Final residual = 1.32387e-12, No Iterations 1
smoothSolver:  Solving for k, Initial residual = 0.00719331, Final residual = 1.37199e-09, No Iterations 1
ExecutionTime = 16.55 s  ClockTime = 17 s

deltaT = 6.62397e-06
Mean and max Courant Numbers = 0.00135678 0.10002
Time = 0.000473633

diagonal:  Solving for rho, Initial residual = 0, Final residual = 0, No Iterations 0
diagonal:  Solving for rhoUx, Initial residual = 0, Final residual = 0, No Iterations 0
diagonal:  Solving for rhoUy, Initial residual = 0, Final residual = 0, No Iterations 0
diagonal:  Solving for rhoUz, Initial residual = 0, Final residual = 0, No Iterations 0
smoothSolver:  Solving for Ux, Initial residual = 3.88308e-07, Final residual = 3.88308e-07, No Iterations 0
smoothSolver:  Solving for Uy, Initial residual = 3.88308e-07, Final residual = 3.88308e-07, No Iterations 0
smoothSolver:  Solving for Uz, Initial residual = 1.13964e-06, Final residual = 2.23772e-13, No Iterations 1
diagonal:  Solving for rhoE, Initial residual = 0, Final residual = 0, No Iterations 0
smoothSolver:  Solving for e, Initial residual = 1.62491e-07, Final residual = 1.62491e-07, No Iterations 0
smoothSolver:  Solving for omega, Initial residual = 6.50151e-06, Final residual = 1.33537e-12, No Iterations 1
smoothSolver:  Solving for k, Initial residual = 0.00710088, Final residual = 1.36026e-09, No Iterations 1
ExecutionTime = 16.84 s  ClockTime = 17 s

deltaT = 6.62397e-06
Mean and max Courant Numbers = 0.00135677 0.10002
Time = 0.000480257

diagonal:  Solving for rho, Initial residual = 0, Final residual = 0, No Iterations 0
diagonal:  Solving for rhoUx, Initial residual = 0, Final residual = 0, No Iterations 0
diagonal:  Solving for rhoUy, Initial residual = 0, Final residual = 0, No Iterations 0
diagonal:  Solving for rhoUz, Initial residual = 0, Final residual = 0, No Iterations 0
smoothSolver:  Solving for Ux, Initial residual = 3.8859e-07, Final residual = 3.8859e-07, No Iterations 0
smoothSolver:  Solving for Uy, Initial residual = 3.8859e-07, Final residual = 3.8859e-07, No Iterations 0
smoothSolver:  Solving for Uz, Initial residual = 1.12563e-06, Final residual = 2.20934e-13, No Iterations 1
diagonal:  Solving for rhoE, Initial residual = 0, Final residual = 0, No Iterations 0
smoothSolver:  Solving for e, Initial residual = 1.62565e-07, Final residual = 1.62565e-07, No Iterations 0
smoothSolver:  Solving for omega, Initial residual = 6.50963e-06, Final residual = 1.3471e-12, No Iterations 1
smoothSolver:  Solving for k, Initial residual = 0.00701105, Final residual = 1.34906e-09, No Iterations 1
ExecutionTime = 17.16 s  ClockTime = 17 s

deltaT = 6.62397e-06
Mean and max Courant Numbers = 0.00135677 0.10002
Time = 0.000486881

diagonal:  Solving for rho, Initial residual = 0, Final residual = 0, No Iterations 0
diagonal:  Solving for rhoUx, Initial residual = 0, Final residual = 0, No Iterations 0
diagonal:  Solving for rhoUy, Initial residual = 0, Final residual = 0, No Iterations 0
diagonal:  Solving for rhoUz, Initial residual = 0, Final residual = 0, No Iterations 0
smoothSolver:  Solving for Ux, Initial residual = 3.88873e-07, Final residual = 3.88873e-07, No Iterations 0
smoothSolver:  Solving for Uy, Initial residual = 3.88873e-07, Final residual = 3.88873e-07, No Iterations 0
smoothSolver:  Solving for Uz, Initial residual = 1.112e-06, Final residual = 2.18206e-13, No Iterations 1
diagonal:  Solving for rhoE, Initial residual = 0, Final residual = 0, No Iterations 0
smoothSolver:  Solving for e, Initial residual = 1.62639e-07, Final residual = 1.62639e-07, No Iterations 0
smoothSolver:  Solving for omega, Initial residual = 6.51777e-06, Final residual = 1.35906e-12, No Iterations 1
smoothSolver:  Solving for k, Initial residual = 0.00692371, Final residual = 1.33835e-09, No Iterations 1
ExecutionTime = 17.41 s  ClockTime = 18 s

deltaT = 6.62397e-06
Mean and max Courant Numbers = 0.00135676 0.10002
Time = 0.000493505

diagonal:  Solving for rho, Initial residual = 0, Final residual = 0, No Iterations 0
diagonal:  Solving for rhoUx, Initial residual = 0, Final residual = 0, No Iterations 0
diagonal:  Solving for rhoUy, Initial residual = 0, Final residual = 0, No Iterations 0
diagonal:  Solving for rhoUz, Initial residual = 0, Final residual = 0, No Iterations 0
smoothSolver:  Solving for Ux, Initial residual = 3.89157e-07, Final residual = 3.89157e-07, No Iterations 0
smoothSolver:  Solving for Uy, Initial residual = 3.89157e-07, Final residual = 3.89157e-07, No Iterations 0
smoothSolver:  Solving for Uz, Initial residual = 1.09874e-06, Final residual = 2.15543e-13, No Iterations 1
diagonal:  Solving for rhoE, Initial residual = 0, Final residual = 0, No Iterations 0
smoothSolver:  Solving for e, Initial residual = 1.62714e-07, Final residual = 1.62714e-07, No Iterations 0
smoothSolver:  Solving for omega, Initial residual = 6.52593e-06, Final residual = 1.37124e-12, No Iterations 1
smoothSolver:  Solving for k, Initial residual = 0.00683876, Final residual = 1.32813e-09, No Iterations 1
ExecutionTime = 17.68 s  ClockTime = 18 s

deltaT = 6.62397e-06
Mean and max Courant Numbers = 0.00135676 0.10002
Time = 0.000500129

diagonal:  Solving for rho, Initial residual = 0, Final residual = 0, No Iterations 0
diagonal:  Solving for rhoUx, Initial residual = 0, Final residual = 0, No Iterations 0
diagonal:  Solving for rhoUy, Initial residual = 0, Final residual = 0, No Iterations 0
diagonal:  Solving for rhoUz, Initial residual = 0, Final residual = 0, No Iterations 0
smoothSolver:  Solving for Ux, Initial residual = 3.89442e-07, Final residual = 3.89442e-07, No Iterations 0
smoothSolver:  Solving for Uy, Initial residual = 3.89442e-07, Final residual = 3.89442e-07, No Iterations 0
smoothSolver:  Solving for Uz, Initial residual = 1.08583e-06, Final residual = 2.12942e-13, No Iterations 1
diagonal:  Solving for rhoE, Initial residual = 0, Final residual = 0, No Iterations 0
smoothSolver:  Solving for e, Initial residual = 1.62789e-07, Final residual = 1.62789e-07, No Iterations 0
smoothSolver:  Solving for omega, Initial residual = 6.53411e-06, Final residual = 1.38365e-12, No Iterations 1
smoothSolver:  Solving for k, Initial residual = 0.0067561, Final residual = 1.31836e-09, No Iterations 1
ExecutionTime = 17.93 s  ClockTime = 18 s

deltaT = 6.62397e-06
Mean and max Courant Numbers = 0.00135675 0.10002
Time = 0.000506753

diagonal:  Solving for rho, Initial residual = 0, Final residual = 0, No Iterations 0
diagonal:  Solving for rhoUx, Initial residual = 0, Final residual = 0, No Iterations 0
diagonal:  Solving for rhoUy, Initial residual = 0, Final residual = 0, No Iterations 0
diagonal:  Solving for rhoUz, Initial residual = 0, Final residual = 0, No Iterations 0
smoothSolver:  Solving for Ux, Initial residual = 3.89729e-07, Final residual = 3.89729e-07, No Iterations 0
smoothSolver:  Solving for Uy, Initial residual = 3.89729e-07, Final residual = 3.89729e-07, No Iterations 0
smoothSolver:  Solving for Uz, Initial residual = 1.07326e-06, Final residual = 2.10406e-13, No Iterations 1
