/*---------------------------------------------------------------------------*\
| =========                 |                                                 |
| \\      /  F ield         | OpenFOAM: The Open Source CFD Toolbox           |
|  \\    /   O peration     | Version:  2412                                  |
|   \\  /    A nd           | Website:  www.openfoam.com                      |
|    \\/     M anipulation  |                                                 |
\*---------------------------------------------------------------------------*/
Build  : _e5c6ccc3-20250814 OPENFOAM=2412 patch=250814 version=2412
Arch   : "LSB;label=32;scalar=64"
Exec   : potentialFoam -parallel -writep
Date   : Jan 03 2026
Time   : 20:03:43
Host   : LAPTOP-FVD4ED85
PID    : 1337
I/O    : uncollated
Case   : /home/ericy/Rocket_CFD_ML/openfoam/combined_test_workflow
nProcs : 4
Hosts  :
(
    (LAPTOP-FVD4ED85 4)
)
Pstream initialized with:
    floatTransfer      : false
    maxCommsSize       : 0
    nProcsSimpleSum    : 0
    nonBlockingExchange: 0 (tuning: 0)
    exchange algorithm : 0
    commsType          : nonBlocking
    polling iterations : 0
trapFpe: Floating point exception trapping enabled (FOAM_SIGFPE).
fileModificationChecking : Monitoring run-time modified files using timeStampMaster (fileModificationSkew 5, maxFileModificationPolls 20)
allowSystemOperations : Allowing user-supplied system call operations

// * * * * * * * * * * * * * * * * * * * * * * * * * * * * * * * * * * * * * //
Create time

Create mesh for time = 0


potentialFlow: Operating solver in PISO mode

Reading velocity field U

Constructing pressure field p

Constructing velocity potential field Phi

No MRF models present


Calculating potential flow
GAMG:  Solving for Phi, Initial residual = 1, Final residual = 0.00330246, No Iterations 8
GAMG:  Solving for Phi, Initial residual = 0.0175744, Final residual = 0.000139312, No Iterations 3
GAMG:  Solving for Phi, Initial residual = 0.000794434, Final residual = 4.62499e-06, No Iterations 4
GAMG:  Solving for Phi, Initial residual = 5.59918e-05, Final residual = 3.73032e-07, No Iterations 4
Continuity error = 5.89881e-05
Interpolated velocity error = 0.00167392

Calculating approximate pressure field
GAMG:  Solving for p, Initial residual = 1, Final residual = 0.00614157, No Iterations 4
GAMG:  Solving for p, Initial residual = 0.0748333, Final residual = 0.000719431, No Iterations 3
GAMG:  Solving for p, Initial residual = 0.00701382, Final residual = 6.05947e-05, No Iterations 4
GAMG:  Solving for p, Initial residual = 0.00102795, Final residual = 7.27322e-06, No Iterations 4
ExecutionTime = 0.57 s  ClockTime = 1 s

End

Finalising parallel run
