/*---------------------------------------------------------------------------*\
| =========                 |                                                 |
| \\      /  F ield         | OpenFOAM: The Open Source CFD Toolbox           |
|  \\    /   O peration     | Version:  2412                                  |
|   \\  /    A nd           | Website:  www.openfoam.com                      |
|    \\/     M anipulation  |                                                 |
\*---------------------------------------------------------------------------*/
Build  : _e5c6ccc3-20250814 OPENFOAM=2412 patch=250814 version=2412
Arch   : "LSB;label=32;scalar=64"
Exec   : reconstructPar
Date   : Jan 05 2026
Time   : 21:56:17
Host   : LAPTOP-FVD4ED85
PID    : 3913
I/O    : uncollated
Case   : /home/ericy/Rocket_CFD_ML/openfoam/combined_test_workflow
nProcs : 1
trapFpe: Floating point exception trapping enabled (FOAM_SIGFPE).
fileModificationChecking : Monitoring run-time modified files using timeStampMaster (fileModificationSkew 5, maxFileModificationPolls 20)
allowSystemOperations : Allowing user-supplied system call operations

// * * * * * * * * * * * * * * * * * * * * * * * * * * * * * * * * * * * * * //
Create time



Reconstructing fields
region=region0

Time = 0.001

Reconstructing FV fields

    Reconstructing volScalarFields

        T
        alphat
        initialResidual:Ux
        initialResidual:Uy
        initialResidual:Uz
        initialResidual:e
        k
        nut
        omega
        p
        rho

    Reconstructing volVectorFields

        U

Reconstructing point fields

No point fields

No lagrangian fields

No FA fields

Time = 0.002

Reconstructing FV fields

    Reconstructing volScalarFields

        T
        alphat
        initialResidual:Ux
        initialResidual:Uy
        initialResidual:Uz
        initialResidual:e
        k
        nut
        omega
        p
        rho

    Reconstructing volVectorFields

        U

Reconstructing point fields

No point fields

No lagrangian fields

No FA fields

Time = 0.003

Reconstructing FV fields

    Reconstructing volScalarFields

        T
        alphat
        initialResidual:Ux
        initialResidual:Uy
        initialResidual:Uz
        initialResidual:e
        k
        nut
        omega
        p
        rho

    Reconstructing volVectorFields

        U

Reconstructing point fields

No point fields

No lagrangian fields

No FA fields

Time = 0.004

Reconstructing FV fields

    Reconstructing volScalarFields

        T
        alphat
        initialResidual:Ux
        initialResidual:Uy
        initialResidual:Uz
        initialResidual:e
        k
        nut
        omega
        p
        rho

    Reconstructing volVectorFields

        U

Reconstructing point fields

No point fields

No lagrangian fields

No FA fields

Time = 0.005

Reconstructing FV fields

    Reconstructing volScalarFields

        T
        alphat
        initialResidual:Ux
        initialResidual:Uy
        initialResidual:Uz
        initialResidual:e
        k
        nut
        omega
        p
        rho

    Reconstructing volVectorFields

        U

Reconstructing point fields

No point fields

No lagrangian fields

No FA fields

Time = 0.006

Reconstructing FV fields

    Reconstructing volScalarFields

        T
        alphat
        initialResidual:Ux
        initialResidual:Uy
        initialResidual:Uz
        initialResidual:e
        k
        nut
        omega
        p
        rho

    Reconstructing volVectorFields

        U

Reconstructing point fields

No point fields

No lagrangian fields

No FA fields

Time = 0.007

Reconstructing FV fields

    Reconstructing volScalarFields

        T
        alphat
        initialResidual:Ux
        initialResidual:Uy
        initialResidual:Uz
        initialResidual:e
        k
        nut
        omega
        p
        rho

    Reconstructing volVectorFields

        U

Reconstructing point fields

No point fields

No lagrangian fields

No FA fields

Time = 0.008

Reconstructing FV fields

    Reconstructing volScalarFields

        T
        alphat
        initialResidual:Ux
        initialResidual:Uy
        initialResidual:Uz
        initialResidual:e
        k
        nut
        omega
        p
        rho

    Reconstructing volVectorFields

        U

Reconstructing point fields

No point fields

No lagrangian fields

No FA fields

Time = 0.009

Reconstructing FV fields

    Reconstructing volScalarFields

        T
        alphat
        initialResidual:Ux
        initialResidual:Uy
        initialResidual:Uz
        initialResidual:e
        k
        nut
        omega
        p
        rho

    Reconstructing volVectorFields

        U

Reconstructing point fields

No point fields

No lagrangian fields

No FA fields

Time = 0.01

Reconstructing FV fields

    Reconstructing volScalarFields

        T
        alphat
        initialResidual:Ux
        initialResidual:Uy
        initialResidual:Uz
        initialResidual:e
        k
        nut
        omega
        p
        rho

    Reconstructing volVectorFields

        U

Reconstructing point fields

No point fields

No lagrangian fields

No FA fields

Time = 0.011

Reconstructing FV fields

    Reconstructing volScalarFields

        T
        alphat
        initialResidual:Ux
        initialResidual:Uy
        initialResidual:Uz
        initialResidual:e
        k
        nut
        omega
        p
        rho

    Reconstructing volVectorFields

        U

Reconstructing point fields

No point fields

No lagrangian fields

No FA fields

Time = 0.012

Reconstructing FV fields

    Reconstructing volScalarFields

        T
        alphat
        initialResidual:Ux
        initialResidual:Uy
        initialResidual:Uz
        initialResidual:e
        k
        nut
        omega
        p
        rho

    Reconstructing volVectorFields

        U

Reconstructing point fields

No point fields

No lagrangian fields

No FA fields

Time = 0.013

Reconstructing FV fields

    Reconstructing volScalarFields

        T
        alphat
        initialResidual:Ux
        initialResidual:Uy
        initialResidual:Uz
        initialResidual:e
        k
        nut
        omega
        p
        rho

    Reconstructing volVectorFields

        U

Reconstructing point fields

No point fields

No lagrangian fields

No FA fields

Time = 0.014

Reconstructing FV fields

    Reconstructing volScalarFields

        T
        alphat
        initialResidual:Ux
        initialResidual:Uy
        initialResidual:Uz
        initialResidual:e
        k
        nut
        omega
        p
        rho

    Reconstructing volVectorFields

        U

Reconstructing point fields

No point fields

No lagrangian fields

No FA fields

Time = 0.015

Reconstructing FV fields

    Reconstructing volScalarFields

        T
        alphat
        initialResidual:Ux
        initialResidual:Uy
        initialResidual:Uz
        initialResidual:e
        k
        nut
        omega
        p
        rho

    Reconstructing volVectorFields

        U

Reconstructing point fields

No point fields

No lagrangian fields

No FA fields


End

