/*---------------------------------------------------------------------------*\
| =========                 |                                                 |
| \\      /  F ield         | OpenFOAM: The Open Source CFD Toolbox           |
|  \\    /   O peration     | Version:  2412                                  |
|   \\  /    A nd           | Website:  www.openfoam.com                      |
|    \\/     M anipulation  |                                                 |
\*---------------------------------------------------------------------------*/
Build  : _e5c6ccc3-20250814 OPENFOAM=2412 patch=250814 version=2412
Arch   : "LSB;label=32;scalar=64"
Exec   : rhoCentralFoam -parallel
Date   : Jan 03 2026
Time   : 15:12:00
Host   : LAPTOP-FVD4ED85
PID    : 11934
I/O    : uncollated
Case   : /home/ericy/Rocket_CFD_ML/openfoam/combined_test_workflow
nProcs : 4
Hosts  :
(
    (LAPTOP-FVD4ED85 4)
)
Pstream initialized with:
    floatTransfer      : false
    maxCommsSize       : 0
    nProcsSimpleSum    : 0
    nonBlockingExchange: 0 (tuning: 0)
    exchange algorithm : 0
    commsType          : nonBlocking
    polling iterations : 0
trapFpe: Floating point exception trapping enabled (FOAM_SIGFPE).
fileModificationChecking : Monitoring run-time modified files using timeStampMaster (fileModificationSkew 5, maxFileModificationPolls 20)
allowSystemOperations : Allowing user-supplied system call operations

// * * * * * * * * * * * * * * * * * * * * * * * * * * * * * * * * * * * * * //
Create time

Create mesh for time = 0

Reading thermophysical properties

Selecting thermodynamics package 
{
    type            hePsiThermo;
    mixture         pureMixture;
    transport       sutherland;
    thermo          hConst;
    equationOfState perfectGas;
    specie          specie;
    energy          sensibleInternalEnergy;
}

Reading field U

Creating turbulence model

Selecting turbulence model type RAS
Selecting RAS turbulence model kOmegaSST
Selecting patchDistMethod meshWave
RAS
{
    model           kOmegaSST;
    turbulence      on;
    printCoeffs     on;
    alphaK1         0.85;
    alphaK2         1;
    alphaOmega1     0.5;
    alphaOmega2     0.856;
    gamma1          0.555556;
    gamma2          0.44;
    beta1           0.075;
    beta2           0.0828;
    betaStar        0.09;
    a1              0.31;
    b1              1;
    c1              10;
    F3              false;
    decayControl    false;
    kInf            0;
    omegaInf        0;
}


Starting time loop

forceCoeffs forces:
    p: p
    U: U
    rho: rho
    Not including porosity effects
    magUInf: 500
    lRef   : 3
    Aref   : 0.1
    rhoInf : 1.225
    Selecting all coefficients
    - Drag force: Cd
    - Drag force front: Cd(f)
    - Drag force rear: Cd(r)
    - Lift force: Cl
    - Lift force front: Cl(f)
    - Lift force rear: Cl(r)
    - Pitch moment: CmPitch
    - Roll moment: CmRoll
    - Yaw moment: CmYaw
    - Side force: Cs
    - Side force front: Cs(f)
    - Side force rear: Cs(r)


deltaT = 1.2e-06
Mean and max Courant Numbers = 0.000534586 0.0307133
Time = 1.2e-06

diagonal:  Solving for rho, Initial residual = 0, Final residual = 0, No Iterations 0
diagonal:  Solving for rhoUx, Initial residual = 0, Final residual = 0, No Iterations 0
diagonal:  Solving for rhoUy, Initial residual = 0, Final residual = 0, No Iterations 0
diagonal:  Solving for rhoUz, Initial residual = 0, Final residual = 0, No Iterations 0
smoothSolver:  Solving for Ux, Initial residual = 2.41556e-07, Final residual = 2.41556e-07, No Iterations 0
smoothSolver:  Solving for Uy, Initial residual = 9.29635e-07, Final residual = 9.29635e-07, No Iterations 0
smoothSolver:  Solving for Uz, Initial residual = 1.10502e-08, Final residual = 1.10502e-08, No Iterations 0
diagonal:  Solving for rhoE, Initial residual = 0, Final residual = 0, No Iterations 0
smoothSolver:  Solving for e, Initial residual = 1.49443e-07, Final residual = 1.49443e-07, No Iterations 0
smoothSolver:  Solving for omega, Initial residual = 5.08112e-09, Final residual = 5.08112e-09, No Iterations 0
smoothSolver:  Solving for k, Initial residual = 3.6526e-09, Final residual = 3.6526e-09, No Iterations 0
ExecutionTime = 1.12 s  ClockTime = 1 s

deltaT = 1.44e-06
Mean and max Courant Numbers = 0.000641503 0.0368624
Time = 2.64e-06

diagonal:  Solving for rho, Initial residual = 0, Final residual = 0, No Iterations 0
diagonal:  Solving for rhoUx, Initial residual = 0, Final residual = 0, No Iterations 0
diagonal:  Solving for rhoUy, Initial residual = 0, Final residual = 0, No Iterations 0
diagonal:  Solving for rhoUz, Initial residual = 0, Final residual = 0, No Iterations 0
smoothSolver:  Solving for Ux, Initial residual = 2.89691e-07, Final residual = 2.89691e-07, No Iterations 0
smoothSolver:  Solving for Uy, Initial residual = 1.115e-06, Final residual = 1.16523e-09, No Iterations 1
smoothSolver:  Solving for Uz, Initial residual = 1.3256e-08, Final residual = 1.3256e-08, No Iterations 0
diagonal:  Solving for rhoE, Initial residual = 0, Final residual = 0, No Iterations 0
smoothSolver:  Solving for e, Initial residual = 1.78874e-07, Final residual = 1.78874e-07, No Iterations 0
smoothSolver:  Solving for omega, Initial residual = 6.04754e-09, Final residual = 6.04754e-09, No Iterations 0
smoothSolver:  Solving for k, Initial residual = 4.35905e-09, Final residual = 4.35905e-09, No Iterations 0
ExecutionTime = 1.59 s  ClockTime = 1 s

deltaT = 1.728e-06
Mean and max Courant Numbers = 0.000769803 0.044244
Time = 4.368e-06

diagonal:  Solving for rho, Initial residual = 0, Final residual = 0, No Iterations 0
diagonal:  Solving for rhoUx, Initial residual = 0, Final residual = 0, No Iterations 0
diagonal:  Solving for rhoUy, Initial residual = 0, Final residual = 0, No Iterations 0
diagonal:  Solving for rhoUz, Initial residual = 0, Final residual = 0, No Iterations 0
smoothSolver:  Solving for Ux, Initial residual = 3.47376e-07, Final residual = 3.47376e-07, No Iterations 0
smoothSolver:  Solving for Uy, Initial residual = 1.33647e-06, Final residual = 1.67619e-09, No Iterations 1
smoothSolver:  Solving for Uz, Initial residual = 1.59012e-08, Final residual = 1.59012e-08, No Iterations 0
diagonal:  Solving for rhoE, Initial residual = 0, Final residual = 0, No Iterations 0
smoothSolver:  Solving for e, Initial residual = 2.14136e-07, Final residual = 2.14136e-07, No Iterations 0
smoothSolver:  Solving for omega, Initial residual = 7.18824e-09, Final residual = 7.18824e-09, No Iterations 0
smoothSolver:  Solving for k, Initial residual = 5.19807e-09, Final residual = 5.19807e-09, No Iterations 0
ExecutionTime = 2.05 s  ClockTime = 2 s

deltaT = 2.0736e-06
Mean and max Courant Numbers = 0.000923764 0.0531054
Time = 6.4416e-06

diagonal:  Solving for rho, Initial residual = 0, Final residual = 0, No Iterations 0
diagonal:  Solving for rhoUx, Initial residual = 0, Final residual = 0, No Iterations 0
diagonal:  Solving for rhoUy, Initial residual = 0, Final residual = 0, No Iterations 0
diagonal:  Solving for rhoUz, Initial residual = 0, Final residual = 0, No Iterations 0
smoothSolver:  Solving for Ux, Initial residual = 4.16501e-07, Final residual = 4.16501e-07, No Iterations 0
smoothSolver:  Solving for Uy, Initial residual = 1.60162e-06, Final residual = 2.41078e-09, No Iterations 1
smoothSolver:  Solving for Uz, Initial residual = 1.90729e-08, Final residual = 1.90729e-08, No Iterations 0
diagonal:  Solving for rhoE, Initial residual = 0, Final residual = 0, No Iterations 0
smoothSolver:  Solving for e, Initial residual = 2.56279e-07, Final residual = 2.56279e-07, No Iterations 0
smoothSolver:  Solving for omega, Initial residual = 8.53299e-09, Final residual = 8.53299e-09, No Iterations 0
smoothSolver:  Solving for k, Initial residual = 6.19472e-09, Final residual = 6.19472e-09, No Iterations 0
ExecutionTime = 2.53 s  ClockTime = 2 s

deltaT = 2.48832e-06
Mean and max Courant Numbers = 0.00110852 0.0637442
Time = 8.92992e-06

diagonal:  Solving for rho, Initial residual = 0, Final residual = 0, No Iterations 0
diagonal:  Solving for rhoUx, Initial residual = 0, Final residual = 0, No Iterations 0
diagonal:  Solving for rhoUy, Initial residual = 0, Final residual = 0, No Iterations 0
diagonal:  Solving for rhoUz, Initial residual = 0, Final residual = 0, No Iterations 0
smoothSolver:  Solving for Ux, Initial residual = 4.99318e-07, Final residual = 4.99318e-07, No Iterations 0
smoothSolver:  Solving for Uy, Initial residual = 1.91897e-06, Final residual = 3.46665e-09, No Iterations 1
smoothSolver:  Solving for Uz, Initial residual = 2.28757e-08, Final residual = 2.28757e-08, No Iterations 0
diagonal:  Solving for rhoE, Initial residual = 0, Final residual = 0, No Iterations 0
smoothSolver:  Solving for e, Initial residual = 3.06617e-07, Final residual = 3.06617e-07, No Iterations 0
smoothSolver:  Solving for omega, Initial residual = 1.01153e-08, Final residual = 1.01153e-08, No Iterations 0
smoothSolver:  Solving for k, Initial residual = 7.37991e-09, Final residual = 7.37991e-09, No Iterations 0
ExecutionTime = 2.98 s  ClockTime = 3 s

deltaT = 2.98598e-06
Mean and max Courant Numbers = 0.00133022 0.0765173
Time = 1.19159e-05

diagonal:  Solving for rho, Initial residual = 0, Final residual = 0, No Iterations 0
diagonal:  Solving for rhoUx, Initial residual = 0, Final residual = 0, No Iterations 0
diagonal:  Solving for rhoUy, Initial residual = 0, Final residual = 0, No Iterations 0
diagonal:  Solving for rhoUz, Initial residual = 0, Final residual = 0, No Iterations 0
smoothSolver:  Solving for Ux, Initial residual = 5.9852e-07, Final residual = 5.9852e-07, No Iterations 0
smoothSolver:  Solving for Uy, Initial residual = 2.29871e-06, Final residual = 4.98388e-09, No Iterations 1
smoothSolver:  Solving for Uz, Initial residual = 2.74342e-08, Final residual = 2.74342e-08, No Iterations 0
diagonal:  Solving for rhoE, Initial residual = 0, Final residual = 0, No Iterations 0
smoothSolver:  Solving for e, Initial residual = 3.66685e-07, Final residual = 3.66685e-07, No Iterations 0
smoothSolver:  Solving for omega, Initial residual = 1.19733e-08, Final residual = 1.19733e-08, No Iterations 0
smoothSolver:  Solving for k, Initial residual = 8.79101e-09, Final residual = 8.79101e-09, No Iterations 0
ExecutionTime = 3.41 s  ClockTime = 3 s

deltaT = 3.58318e-06
Mean and max Courant Numbers = 0.00159626 0.0918541
Time = 1.54991e-05

diagonal:  Solving for rho, Initial residual = 0, Final residual = 0, No Iterations 0
diagonal:  Solving for rhoUx, Initial residual = 0, Final residual = 0, No Iterations 0
diagonal:  Solving for rhoUy, Initial residual = 0, Final residual = 0, No Iterations 0
diagonal:  Solving for rhoUz, Initial residual = 0, Final residual = 0, No Iterations 0
smoothSolver:  Solving for Ux, Initial residual = 7.17329e-07, Final residual = 7.17329e-07, No Iterations 0
smoothSolver:  Solving for Uy, Initial residual = 2.75292e-06, Final residual = 7.16346e-09, No Iterations 1
smoothSolver:  Solving for Uz, Initial residual = 3.28978e-08, Final residual = 3.28978e-08, No Iterations 0
diagonal:  Solving for rhoE, Initial residual = 0, Final residual = 0, No Iterations 0
smoothSolver:  Solving for e, Initial residual = 4.38271e-07, Final residual = 4.38271e-07, No Iterations 0
smoothSolver:  Solving for omega, Initial residual = 1.41583e-08, Final residual = 1.41583e-08, No Iterations 0
smoothSolver:  Solving for k, Initial residual = 1.0476e-08, Final residual = 1.0476e-08, No Iterations 0
ExecutionTime = 3.88 s  ClockTime = 3 s

deltaT = 4.29982e-06
Mean and max Courant Numbers = 0.00191551 0.11027
Time = 1.97989e-05

diagonal:  Solving for rho, Initial residual = 0, Final residual = 0, No Iterations 0
diagonal:  Solving for rhoUx, Initial residual = 0, Final residual = 0, No Iterations 0
diagonal:  Solving for rhoUy, Initial residual = 0, Final residual = 0, No Iterations 0
diagonal:  Solving for rhoUz, Initial residual = 0, Final residual = 0, No Iterations 0
smoothSolver:  Solving for Ux, Initial residual = 8.59595e-07, Final residual = 8.59595e-07, No Iterations 0
smoothSolver:  Solving for Uy, Initial residual = 3.29601e-06, Final residual = 1.02936e-08, No Iterations 1
smoothSolver:  Solving for Uz, Initial residual = 3.94452e-08, Final residual = 3.94452e-08, No Iterations 0
diagonal:  Solving for rhoE, Initial residual = 0, Final residual = 0, No Iterations 0
smoothSolver:  Solving for e, Initial residual = 5.23427e-07, Final residual = 5.23427e-07, No Iterations 0
smoothSolver:  Solving for omega, Initial residual = 1.67329e-08, Final residual = 1.67329e-08, No Iterations 0
smoothSolver:  Solving for k, Initial residual = 1.2502e-08, Final residual = 1.2502e-08, No Iterations 0
ExecutionTime = 4.36 s  ClockTime = 4 s

deltaT = 5.15978e-06
Mean and max Courant Numbers = 0.00229861 0.132385
Time = 2.49587e-05

diagonal:  Solving for rho, Initial residual = 0, Final residual = 0, No Iterations 0
diagonal:  Solving for rhoUx, Initial residual = 0, Final residual = 0, No Iterations 0
diagonal:  Solving for rhoUy, Initial residual = 0, Final residual = 0, No Iterations 0
diagonal:  Solving for rhoUz, Initial residual = 0, Final residual = 0, No Iterations 0
smoothSolver:  Solving for Ux, Initial residual = 1.02991e-06, Final residual = 3.92439e-09, No Iterations 1
smoothSolver:  Solving for Uy, Initial residual = 3.94512e-06, Final residual = 1.47872e-08, No Iterations 1
smoothSolver:  Solving for Uz, Initial residual = 4.72901e-08, Final residual = 4.72901e-08, No Iterations 0
diagonal:  Solving for rhoE, Initial residual = 0, Final residual = 0, No Iterations 0
smoothSolver:  Solving for e, Initial residual = 6.24318e-07, Final residual = 6.24318e-07, No Iterations 0
smoothSolver:  Solving for omega, Initial residual = 1.97909e-08, Final residual = 1.97909e-08, No Iterations 0
smoothSolver:  Solving for k, Initial residual = 1.49573e-08, Final residual = 1.49573e-08, No Iterations 0
ExecutionTime = 4.85 s  ClockTime = 4 s

deltaT = 6.19174e-06
Mean and max Courant Numbers = 0.00275833 0.15894
Time = 3.11504e-05

diagonal:  Solving for rho, Initial residual = 0, Final residual = 0, No Iterations 0
diagonal:  Solving for rhoUx, Initial residual = 0, Final residual = 0, No Iterations 0
diagonal:  Solving for rhoUy, Initial residual = 0, Final residual = 0, No Iterations 0
diagonal:  Solving for rhoUz, Initial residual = 0, Final residual = 0, No Iterations 0
smoothSolver:  Solving for Ux, Initial residual = 1.23163e-06, Final residual = 5.63081e-09, No Iterations 1
smoothSolver:  Solving for Uy, Initial residual = 4.72027e-06, Final residual = 2.12337e-08, No Iterations 1
smoothSolver:  Solving for Uz, Initial residual = 5.66882e-08, Final residual = 5.66882e-08, No Iterations 0
diagonal:  Solving for rhoE, Initial residual = 0, Final residual = 0, No Iterations 0
smoothSolver:  Solving for e, Initial residual = 7.43998e-07, Final residual = 7.43998e-07, No Iterations 0
smoothSolver:  Solving for omega, Initial residual = 2.34698e-08, Final residual = 2.34698e-08, No Iterations 0
smoothSolver:  Solving for k, Initial residual = 1.79712e-08, Final residual = 1.79712e-08, No Iterations 0
ExecutionTime = 5.36 s  ClockTime = 5 s

deltaT = 7.43008e-06
Mean and max Courant Numbers = 0.00331 0.19083
Time = 3.85805e-05

diagonal:  Solving for rho, Initial residual = 0, Final residual = 0, No Iterations 0
diagonal:  Solving for rhoUx, Initial residual = 0, Final residual = 0, No Iterations 0
diagonal:  Solving for rhoUy, Initial residual = 0, Final residual = 0, No Iterations 0
diagonal:  Solving for rhoUz, Initial residual = 0, Final residual = 0, No Iterations 0
smoothSolver:  Solving for Ux, Initial residual = 1.47231e-06, Final residual = 8.0752e-09, No Iterations 1
smoothSolver:  Solving for Uy, Initial residual = 5.64608e-06, Final residual = 3.04793e-08, No Iterations 1
smoothSolver:  Solving for Uz, Initial residual = 6.79443e-08, Final residual = 6.79443e-08, No Iterations 0
diagonal:  Solving for rhoE, Initial residual = 0, Final residual = 0, No Iterations 0
smoothSolver:  Solving for e, Initial residual = 8.85866e-07, Final residual = 8.85866e-07, No Iterations 0
smoothSolver:  Solving for omega, Initial residual = 2.79366e-08, Final residual = 2.79366e-08, No Iterations 0
smoothSolver:  Solving for k, Initial residual = 2.17097e-08, Final residual = 2.17097e-08, No Iterations 0
ExecutionTime = 5.84 s  ClockTime = 5 s

deltaT = 8.9161e-06
Mean and max Courant Numbers = 0.00397199 0.22913
Time = 4.74966e-05

diagonal:  Solving for rho, Initial residual = 0, Final residual = 0, No Iterations 0
diagonal:  Solving for rhoUx, Initial residual = 0, Final residual = 0, No Iterations 0
diagonal:  Solving for rhoUy, Initial residual = 0, Final residual = 0, No Iterations 0
diagonal:  Solving for rhoUz, Initial residual = 0, Final residual = 0, No Iterations 0
smoothSolver:  Solving for Ux, Initial residual = 1.75939e-06, Final residual = 1.15747e-08, No Iterations 1
smoothSolver:  Solving for Uy, Initial residual = 6.75164e-06, Final residual = 4.37339e-08, No Iterations 1
smoothSolver:  Solving for Uz, Initial residual = 8.1425e-08, Final residual = 8.1425e-08, No Iterations 0
diagonal:  Solving for rhoE, Initial residual = 0, Final residual = 0, No Iterations 0
smoothSolver:  Solving for e, Initial residual = 1.05376e-06, Final residual = 1.05376e-06, No Iterations 0
smoothSolver:  Solving for omega, Initial residual = 3.33705e-08, Final residual = 3.33705e-08, No Iterations 0
smoothSolver:  Solving for k, Initial residual = 2.64465e-08, Final residual = 2.64465e-08, No Iterations 0
ExecutionTime = 6.3 s  ClockTime = 6 s

deltaT = 1.06993e-05
Mean and max Courant Numbers = 0.00476638 0.275127
Time = 5.81959e-05

diagonal:  Solving for rho, Initial residual = 0, Final residual = 0, No Iterations 0
diagonal:  Solving for rhoUx, Initial residual = 0, Final residual = 0, No Iterations 0
diagonal:  Solving for rhoUy, Initial residual = 0, Final residual = 0, No Iterations 0
diagonal:  Solving for rhoUz, Initial residual = 0, Final residual = 0, No Iterations 0
smoothSolver:  Solving for Ux, Initial residual = 2.10175e-06, Final residual = 1.65808e-08, No Iterations 1
smoothSolver:  Solving for Uy, Initial residual = 8.07193e-06, Final residual = 6.27238e-08, No Iterations 1
smoothSolver:  Solving for Uz, Initial residual = 9.75672e-08, Final residual = 9.75672e-08, No Iterations 0
diagonal:  Solving for rhoE, Initial residual = 0, Final residual = 0, No Iterations 0
smoothSolver:  Solving for e, Initial residual = 1.2522e-06, Final residual = 1.2522e-06, No Iterations 0
smoothSolver:  Solving for omega, Initial residual = 4.00791e-08, Final residual = 4.00791e-08, No Iterations 0
smoothSolver:  Solving for k, Initial residual = 3.25599e-08, Final residual = 3.25599e-08, No Iterations 0
ExecutionTime = 6.75 s  ClockTime = 6 s

deltaT = 1.26438e-05
Mean and max Courant Numbers = 0.00563259 0.325335
Time = 7.08397e-05

diagonal:  Solving for rho, Initial residual = 0, Final residual = 0, No Iterations 0
diagonal:  Solving for rhoUx, Initial residual = 0, Final residual = 0, No Iterations 0
diagonal:  Solving for rhoUy, Initial residual = 0, Final residual = 0, No Iterations 0
diagonal:  Solving for rhoUz, Initial residual = 0, Final residual = 0, No Iterations 0
smoothSolver:  Solving for Ux, Initial residual = 2.47199e-06, Final residual = 2.30253e-08, No Iterations 1
smoothSolver:  Solving for Uy, Initial residual = 9.5024e-06, Final residual = 8.72158e-08, No Iterations 1
smoothSolver:  Solving for Uz, Initial residual = 1.15115e-07, Final residual = 1.15115e-07, No Iterations 0
diagonal:  Solving for rhoE, Initial residual = 0, Final residual = 0, No Iterations 0
smoothSolver:  Solving for e, Initial residual = 1.46405e-06, Final residual = 1.46405e-06, No Iterations 0
smoothSolver:  Solving for omega, Initial residual = 4.76887e-08, Final residual = 4.76887e-08, No Iterations 0
smoothSolver:  Solving for k, Initial residual = 3.9947e-08, Final residual = 3.9947e-08, No Iterations 0
ExecutionTime = 7.21 s  ClockTime = 7 s

deltaT = 1.45869e-05
Mean and max Courant Numbers = 0.00649824 0.375565
Time = 8.54266e-05

diagonal:  Solving for rho, Initial residual = 0, Final residual = 0, No Iterations 0
diagonal:  Solving for rhoUx, Initial residual = 0, Final residual = 0, No Iterations 0
diagonal:  Solving for rhoUy, Initial residual = 0, Final residual = 0, No Iterations 0
diagonal:  Solving for rhoUz, Initial residual = 0, Final residual = 0, No Iterations 0
smoothSolver:  Solving for Ux, Initial residual = 2.83825e-06, Final residual = 3.04722e-08, No Iterations 1
smoothSolver:  Solving for Uy, Initial residual = 1.0921e-05, Final residual = 1.15576e-07, No Iterations 1
smoothSolver:  Solving for Uz, Initial residual = 1.32587e-07, Final residual = 1.32587e-07, No Iterations 0
diagonal:  Solving for rhoE, Initial residual = 0, Final residual = 0, No Iterations 0
smoothSolver:  Solving for e, Initial residual = 1.67013e-06, Final residual = 1.67013e-06, No Iterations 0
smoothSolver:  Solving for omega, Initial residual = 5.59496e-08, Final residual = 5.59496e-08, No Iterations 0
smoothSolver:  Solving for k, Initial residual = 4.84172e-08, Final residual = 4.84172e-08, No Iterations 0
ExecutionTime = 7.63 s  ClockTime = 7 s

deltaT = 1.65289e-05
Mean and max Courant Numbers = 0.00736335 0.425984
Time = 0.000101956

diagonal:  Solving for rho, Initial residual = 0, Final residual = 0, No Iterations 0
diagonal:  Solving for rhoUx, Initial residual = 0, Final residual = 0, No Iterations 0
diagonal:  Solving for rhoUy, Initial residual = 0, Final residual = 0, No Iterations 0
diagonal:  Solving for rhoUz, Initial residual = 0, Final residual = 0, No Iterations 0
smoothSolver:  Solving for Ux, Initial residual = 3.201e-06, Final residual = 3.88985e-08, No Iterations 1
smoothSolver:  Solving for Uy, Initial residual = 1.23296e-05, Final residual = 1.47739e-07, No Iterations 1
smoothSolver:  Solving for Uz, Initial residual = 1.49982e-07, Final residual = 1.49982e-07, No Iterations 0
diagonal:  Solving for rhoE, Initial residual = 0, Final residual = 0, No Iterations 0
smoothSolver:  Solving for e, Initial residual = 1.87037e-06, Final residual = 1.87037e-06, No Iterations 0
smoothSolver:  Solving for omega, Initial residual = 6.52253e-08, Final residual = 6.52253e-08, No Iterations 0
smoothSolver:  Solving for k, Initial residual = 5.82219e-08, Final residual = 5.82219e-08, No Iterations 0
ExecutionTime = 8.11 s  ClockTime = 8 s

deltaT = 1.8469e-05
Mean and max Courant Numbers = 0.0082276 0.47689
Time = 0.000120425

diagonal:  Solving for rho, Initial residual = 0, Final residual = 0, No Iterations 0
diagonal:  Solving for rhoUx, Initial residual = 0, Final residual = 0, No Iterations 0
diagonal:  Solving for rhoUy, Initial residual = 0, Final residual = 0, No Iterations 0
diagonal:  Solving for rhoUz, Initial residual = 0, Final residual = 0, No Iterations 0
smoothSolver:  Solving for Ux, Initial residual = 3.56087e-06, Final residual = 4.82765e-08, No Iterations 1
smoothSolver:  Solving for Uy, Initial residual = 1.37311e-05, Final residual = 1.83621e-07, No Iterations 1
smoothSolver:  Solving for Uz, Initial residual = 1.67292e-07, Final residual = 1.67292e-07, No Iterations 0
diagonal:  Solving for rhoE, Initial residual = 0, Final residual = 0, No Iterations 0
smoothSolver:  Solving for e, Initial residual = 2.06541e-06, Final residual = 2.06541e-06, No Iterations 0
smoothSolver:  Solving for omega, Initial residual = 7.57664e-08, Final residual = 7.57664e-08, No Iterations 0
smoothSolver:  Solving for k, Initial residual = 6.95941e-08, Final residual = 6.95941e-08, No Iterations 0
ExecutionTime = 8.54 s  ClockTime = 8 s

deltaT = 1.9364e-05
Mean and max Courant Numbers = 0.00862629 0.501177
Time = 0.000139789

diagonal:  Solving for rho, Initial residual = 0, Final residual = 0, No Iterations 0
diagonal:  Solving for rhoUx, Initial residual = 0, Final residual = 0, No Iterations 0
diagonal:  Solving for rhoUy, Initial residual = 0, Final residual = 0, No Iterations 0
diagonal:  Solving for rhoUz, Initial residual = 0, Final residual = 0, No Iterations 0
smoothSolver:  Solving for Ux, Initial residual = 3.71822e-06, Final residual = 5.28265e-08, No Iterations 1
smoothSolver:  Solving for Uy, Initial residual = 1.43541e-05, Final residual = 2.01192e-07, No Iterations 1
smoothSolver:  Solving for Uz, Initial residual = 1.75093e-07, Final residual = 1.75093e-07, No Iterations 0
diagonal:  Solving for rhoE, Initial residual = 0, Final residual = 0, No Iterations 0
smoothSolver:  Solving for e, Initial residual = 2.1409e-06, Final residual = 2.1409e-06, No Iterations 0
smoothSolver:  Solving for omega, Initial residual = 8.31528e-08, Final residual = 8.31528e-08, No Iterations 0
smoothSolver:  Solving for k, Initial residual = 7.82914e-08, Final residual = 7.82914e-08, No Iterations 0
ExecutionTime = 9 s  ClockTime = 9 s

deltaT = 1.93185e-05
Mean and max Courant Numbers = 0.00860601 0.501111
Time = 0.000159107

diagonal:  Solving for rho, Initial residual = 0, Final residual = 0, No Iterations 0
diagonal:  Solving for rhoUx, Initial residual = 0, Final residual = 0, No Iterations 0
diagonal:  Solving for rhoUy, Initial residual = 0, Final residual = 0, No Iterations 0
diagonal:  Solving for rhoUz, Initial residual = 0, Final residual = 0, No Iterations 0
smoothSolver:  Solving for Ux, Initial residual = 3.69645e-06, Final residual = 5.24128e-08, No Iterations 1
smoothSolver:  Solving for Uy, Initial residual = 1.42846e-05, Final residual = 1.99848e-07, No Iterations 1
smoothSolver:  Solving for Uz, Initial residual = 1.74386e-07, Final residual = 1.74386e-07, No Iterations 0
diagonal:  Solving for rhoE, Initial residual = 0, Final residual = 0, No Iterations 0
smoothSolver:  Solving for e, Initial residual = 2.1136e-06, Final residual = 2.1136e-06, No Iterations 0
smoothSolver:  Solving for omega, Initial residual = 8.70455e-08, Final residual = 8.70455e-08, No Iterations 0
smoothSolver:  Solving for k, Initial residual = 8.3692e-08, Final residual = 8.3692e-08, No Iterations 0
ExecutionTime = 9.45 s  ClockTime = 9 s

deltaT = 1.92757e-05
Mean and max Courant Numbers = 0.00858691 0.500764
Time = 0.000178383

diagonal:  Solving for rho, Initial residual = 0, Final residual = 0, No Iterations 0
diagonal:  Solving for rhoUx, Initial residual = 0, Final residual = 0, No Iterations 0
diagonal:  Solving for rhoUy, Initial residual = 0, Final residual = 0, No Iterations 0
diagonal:  Solving for rhoUz, Initial residual = 0, Final residual = 0, No Iterations 0
smoothSolver:  Solving for Ux, Initial residual = 3.67782e-06, Final residual = 5.20317e-08, No Iterations 1
smoothSolver:  Solving for Uy, Initial residual = 1.4226e-05, Final residual = 1.98591e-07, No Iterations 1
smoothSolver:  Solving for Uz, Initial residual = 1.7371e-07, Final residual = 1.7371e-07, No Iterations 0
diagonal:  Solving for rhoE, Initial residual = 0, Final residual = 0, No Iterations 0
smoothSolver:  Solving for e, Initial residual = 2.08955e-06, Final residual = 2.08955e-06, No Iterations 0
smoothSolver:  Solving for omega, Initial residual = 9.129e-08, Final residual = 9.129e-08, No Iterations 0
smoothSolver:  Solving for k, Initial residual = 8.91841e-08, Final residual = 8.91841e-08, No Iterations 0
ExecutionTime = 9.9 s  ClockTime = 10 s

deltaT = 1.92463e-05
Mean and max Courant Numbers = 0.00857378 0.500342
Time = 0.000197629

diagonal:  Solving for rho, Initial residual = 0, Final residual = 0, No Iterations 0
diagonal:  Solving for rhoUx, Initial residual = 0, Final residual = 0, No Iterations 0
diagonal:  Solving for rhoUy, Initial residual = 0, Final residual = 0, No Iterations 0
diagonal:  Solving for rhoUz, Initial residual = 0, Final residual = 0, No Iterations 0
smoothSolver:  Solving for Ux, Initial residual = 3.66367e-06, Final residual = 5.17383e-08, No Iterations 1
smoothSolver:  Solving for Uy, Initial residual = 1.41855e-05, Final residual = 1.9765e-07, No Iterations 1
smoothSolver:  Solving for Uz, Initial residual = 1.73158e-07, Final residual = 1.73158e-07, No Iterations 0
diagonal:  Solving for rhoE, Initial residual = 0, Final residual = 0, No Iterations 0
smoothSolver:  Solving for e, Initial residual = 2.06931e-06, Final residual = 2.06931e-06, No Iterations 0
smoothSolver:  Solving for omega, Initial residual = 9.5813e-08, Final residual = 9.5813e-08, No Iterations 0
smoothSolver:  Solving for k, Initial residual = 9.47788e-08, Final residual = 9.47788e-08, No Iterations 0
ExecutionTime = 10.53 s  ClockTime = 10 s

deltaT = 1.92332e-05
Mean and max Courant Numbers = 0.0085679 0.499956
Time = 0.000216862

diagonal:  Solving for rho, Initial residual = 0, Final residual = 0, No Iterations 0
diagonal:  Solving for rhoUx, Initial residual = 0, Final residual = 0, No Iterations 0
diagonal:  Solving for rhoUy, Initial residual = 0, Final residual = 0, No Iterations 0
diagonal:  Solving for rhoUz, Initial residual = 0, Final residual = 0, No Iterations 0
smoothSolver:  Solving for Ux, Initial residual = 3.65431e-06, Final residual = 5.15483e-08, No Iterations 1
smoothSolver:  Solving for Uy, Initial residual = 1.41628e-05, Final residual = 1.97076e-07, No Iterations 1
smoothSolver:  Solving for Uz, Initial residual = 1.72758e-07, Final residual = 1.72758e-07, No Iterations 0
diagonal:  Solving for rhoE, Initial residual = 0, Final residual = 0, No Iterations 0
smoothSolver:  Solving for e, Initial residual = 2.0528e-06, Final residual = 2.0528e-06, No Iterations 0
smoothSolver:  Solving for omega, Initial residual = 1.00486e-07, Final residual = 1.00486e-07, No Iterations 0
smoothSolver:  Solving for k, Initial residual = 1.00525e-07, Final residual = 1.00525e-07, No Iterations 0
ExecutionTime = 11.18 s  ClockTime = 11 s

deltaT = 1.92349e-05
Mean and max Courant Numbers = 0.00856863 0.499755
Time = 0.000236097

diagonal:  Solving for rho, Initial residual = 0, Final residual = 0, No Iterations 0
diagonal:  Solving for rhoUx, Initial residual = 0, Final residual = 0, No Iterations 0
diagonal:  Solving for rhoUy, Initial residual = 0, Final residual = 0, No Iterations 0
diagonal:  Solving for rhoUz, Initial residual = 0, Final residual = 0, No Iterations 0
smoothSolver:  Solving for Ux, Initial residual = 3.64918e-06, Final residual = 5.14525e-08, No Iterations 1
smoothSolver:  Solving for Uy, Initial residual = 1.41552e-05, Final residual = 1.96841e-07, No Iterations 1
smoothSolver:  Solving for Uz, Initial residual = 1.72494e-07, Final residual = 1.72494e-07, No Iterations 0
diagonal:  Solving for rhoE, Initial residual = 0, Final residual = 0, No Iterations 0
smoothSolver:  Solving for e, Initial residual = 2.03967e-06, Final residual = 2.03967e-06, No Iterations 0
smoothSolver:  Solving for omega, Initial residual = 1.05166e-07, Final residual = 1.05166e-07, No Iterations 0
smoothSolver:  Solving for k, Initial residual = 1.06396e-07, Final residual = 1.06396e-07, No Iterations 0
ExecutionTime = 11.75 s  ClockTime = 11 s

deltaT = 1.92443e-05
Mean and max Courant Numbers = 0.00857282 0.500079
Time = 0.000255341

diagonal:  Solving for rho, Initial residual = 0, Final residual = 0, No Iterations 0
diagonal:  Solving for rhoUx, Initial residual = 0, Final residual = 0, No Iterations 0
diagonal:  Solving for rhoUy, Initial residual = 0, Final residual = 0, No Iterations 0
diagonal:  Solving for rhoUz, Initial residual = 0, Final residual = 0, No Iterations 0
smoothSolver:  Solving for Ux, Initial residual = 3.64671e-06, Final residual = 5.14147e-08, No Iterations 1
smoothSolver:  Solving for Uy, Initial residual = 1.41573e-05, Final residual = 1.96814e-07, No Iterations 1
smoothSolver:  Solving for Uz, Initial residual = 1.72299e-07, Final residual = 1.72299e-07, No Iterations 0
diagonal:  Solving for rhoE, Initial residual = 0, Final residual = 0, No Iterations 0
smoothSolver:  Solving for e, Initial residual = 2.02903e-06, Final residual = 2.02903e-06, No Iterations 0
smoothSolver:  Solving for omega, Initial residual = 1.09842e-07, Final residual = 1.09842e-07, No Iterations 0
smoothSolver:  Solving for k, Initial residual = 1.12374e-07, Final residual = 1.12374e-07, No Iterations 0
ExecutionTime = 12.46 s  ClockTime = 12 s

deltaT = 1.92412e-05
Mean and max Courant Numbers = 0.00857144 0.499687
Time = 0.000274583

diagonal:  Solving for rho, Initial residual = 0, Final residual = 0, No Iterations 0
diagonal:  Solving for rhoUx, Initial residual = 0, Final residual = 0, No Iterations 0
diagonal:  Solving for rhoUy, Initial residual = 0, Final residual = 0, No Iterations 0
diagonal:  Solving for rhoUz, Initial residual = 0, Final residual = 0, No Iterations 0
smoothSolver:  Solving for Ux, Initial residual = 3.6431e-06, Final residual = 5.13322e-08, No Iterations 1
smoothSolver:  Solving for Uy, Initial residual = 1.41542e-05, Final residual = 1.96598e-07, No Iterations 1
smoothSolver:  Solving for Uz, Initial residual = 1.71991e-07, Final residual = 1.71991e-07, No Iterations 0
diagonal:  Solving for rhoE, Initial residual = 0, Final residual = 0, No Iterations 0
smoothSolver:  Solving for e, Initial residual = 2.01814e-06, Final residual = 2.01814e-06, No Iterations 0
smoothSolver:  Solving for omega, Initial residual = 1.14395e-07, Final residual = 1.14395e-07, No Iterations 0
smoothSolver:  Solving for k, Initial residual = 1.18299e-07, Final residual = 1.18299e-07, No Iterations 0
ExecutionTime = 13.28 s  ClockTime = 13 s

deltaT = 1.92533e-05
Mean and max Courant Numbers = 0.00857679 0.500385
Time = 0.000293836

diagonal:  Solving for rho, Initial residual = 0, Final residual = 0, No Iterations 0
diagonal:  Solving for rhoUx, Initial residual = 0, Final residual = 0, No Iterations 0
diagonal:  Solving for rhoUy, Initial residual = 0, Final residual = 0, No Iterations 0
diagonal:  Solving for rhoUz, Initial residual = 0, Final residual = 0, No Iterations 0
smoothSolver:  Solving for Ux, Initial residual = 3.64335e-06, Final residual = 5.13581e-08, No Iterations 1
smoothSolver:  Solving for Uy, Initial residual = 1.41667e-05, Final residual = 1.96761e-07, No Iterations 1
smoothSolver:  Solving for Uz, Initial residual = 1.71818e-07, Final residual = 1.71818e-07, No Iterations 0
diagonal:  Solving for rhoE, Initial residual = 0, Final residual = 0, No Iterations 0
smoothSolver:  Solving for e, Initial residual = 2.00915e-06, Final residual = 2.00915e-06, No Iterations 0
smoothSolver:  Solving for omega, Initial residual = 1.18993e-07, Final residual = 1.18993e-07, No Iterations 0
smoothSolver:  Solving for k, Initial residual = 1.24348e-07, Final residual = 1.24348e-07, No Iterations 0
ExecutionTime = 14.06 s  ClockTime = 14 s

deltaT = 1.92385e-05
Mean and max Courant Numbers = 0.00857017 0.50045
Time = 0.000313074

diagonal:  Solving for rho, Initial residual = 0, Final residual = 0, No Iterations 0
diagonal:  Solving for rhoUx, Initial residual = 0, Final residual = 0, No Iterations 0
diagonal:  Solving for rhoUy, Initial residual = 0, Final residual = 0, No Iterations 0
diagonal:  Solving for rhoUz, Initial residual = 0, Final residual = 0, No Iterations 0
smoothSolver:  Solving for Ux, Initial residual = 3.63964e-06, Final residual = 5.12725e-08, No Iterations 1
smoothSolver:  Solving for Uy, Initial residual = 1.41639e-05, Final residual = 1.9648e-07, No Iterations 1
smoothSolver:  Solving for Uz, Initial residual = 1.71405e-07, Final residual = 1.71405e-07, No Iterations 0
diagonal:  Solving for rhoE, Initial residual = 0, Final residual = 0, No Iterations 0
smoothSolver:  Solving for e, Initial residual = 1.99773e-06, Final residual = 1.99773e-06, No Iterations 0
smoothSolver:  Solving for omega, Initial residual = 1.23394e-07, Final residual = 1.23394e-07, No Iterations 0
smoothSolver:  Solving for k, Initial residual = 1.30239e-07, Final residual = 1.30239e-07, No Iterations 0
ExecutionTime = 14.58 s  ClockTime = 14 s

deltaT = 1.92212e-05
Mean and max Courant Numbers = 0.00856244 0.500434
Time = 0.000332296

diagonal:  Solving for rho, Initial residual = 0, Final residual = 0, No Iterations 0
diagonal:  Solving for rhoUx, Initial residual = 0, Final residual = 0, No Iterations 0
diagonal:  Solving for rhoUy, Initial residual = 0, Final residual = 0, No Iterations 0
diagonal:  Solving for rhoUz, Initial residual = 0, Final residual = 0, No Iterations 0
smoothSolver:  Solving for Ux, Initial residual = 3.6365e-06, Final residual = 5.11991e-08, No Iterations 1
smoothSolver:  Solving for Uy, Initial residual = 1.41637e-05, Final residual = 1.96294e-07, No Iterations 1
smoothSolver:  Solving for Uz, Initial residual = 1.70971e-07, Final residual = 1.70971e-07, No Iterations 0
diagonal:  Solving for rhoE, Initial residual = 0, Final residual = 0, No Iterations 0
smoothSolver:  Solving for e, Initial residual = 1.98639e-06, Final residual = 1.98639e-06, No Iterations 0
smoothSolver:  Solving for omega, Initial residual = 1.27676e-07, Final residual = 1.27676e-07, No Iterations 0
smoothSolver:  Solving for k, Initial residual = 1.36086e-07, Final residual = 1.36086e-07, No Iterations 0
ExecutionTime = 15.11 s  ClockTime = 15 s

deltaT = 1.92045e-05
Mean and max Courant Numbers = 0.00855499 0.500438
Time = 0.0003515

diagonal:  Solving for rho, Initial residual = 0, Final residual = 0, No Iterations 0
diagonal:  Solving for rhoUx, Initial residual = 0, Final residual = 0, No Iterations 0
diagonal:  Solving for rhoUy, Initial residual = 0, Final residual = 0, No Iterations 0
diagonal:  Solving for rhoUz, Initial residual = 0, Final residual = 0, No Iterations 0
smoothSolver:  Solving for Ux, Initial residual = 3.63462e-06, Final residual = 5.11559e-08, No Iterations 1
smoothSolver:  Solving for Uy, Initial residual = 1.41683e-05, Final residual = 1.96271e-07, No Iterations 1
smoothSolver:  Solving for Uz, Initial residual = 1.70545e-07, Final residual = 1.70545e-07, No Iterations 0
diagonal:  Solving for rhoE, Initial residual = 0, Final residual = 0, No Iterations 0
smoothSolver:  Solving for e, Initial residual = 1.97554e-06, Final residual = 1.97554e-06, No Iterations 0
smoothSolver:  Solving for omega, Initial residual = 1.31881e-07, Final residual = 1.31881e-07, No Iterations 0
smoothSolver:  Solving for k, Initial residual = 1.4192e-07, Final residual = 1.4192e-07, No Iterations 0
ExecutionTime = 15.58 s  ClockTime = 15 s

deltaT = 1.91877e-05
Mean and max Courant Numbers = 0.00854748 0.500341
Time = 0.000370688

diagonal:  Solving for rho, Initial residual = 0, Final residual = 0, No Iterations 0
diagonal:  Solving for rhoUx, Initial residual = 0, Final residual = 0, No Iterations 0
diagonal:  Solving for rhoUy, Initial residual = 0, Final residual = 0, No Iterations 0
diagonal:  Solving for rhoUz, Initial residual = 0, Final residual = 0, No Iterations 0
smoothSolver:  Solving for Ux, Initial residual = 3.63395e-06, Final residual = 5.11425e-08, No Iterations 1
smoothSolver:  Solving for Uy, Initial residual = 1.41767e-05, Final residual = 1.96375e-07, No Iterations 1
smoothSolver:  Solving for Uz, Initial residual = 1.7012e-07, Final residual = 1.7012e-07, No Iterations 0
diagonal:  Solving for rhoE, Initial residual = 0, Final residual = 0, No Iterations 0
smoothSolver:  Solving for e, Initial residual = 1.96504e-06, Final residual = 1.96504e-06, No Iterations 0
smoothSolver:  Solving for omega, Initial residual = 1.35979e-07, Final residual = 1.35979e-07, No Iterations 0
smoothSolver:  Solving for k, Initial residual = 1.47717e-07, Final residual = 1.47717e-07, No Iterations 0
ExecutionTime = 16.04 s  ClockTime = 16 s

deltaT = 1.91746e-05
Mean and max Courant Numbers = 0.00854163 0.500218
Time = 0.000389862

diagonal:  Solving for rho, Initial residual = 0, Final residual = 0, No Iterations 0
diagonal:  Solving for rhoUx, Initial residual = 0, Final residual = 0, No Iterations 0
diagonal:  Solving for rhoUy, Initial residual = 0, Final residual = 0, No Iterations 0
diagonal:  Solving for rhoUz, Initial residual = 0, Final residual = 0, No Iterations 0
smoothSolver:  Solving for Ux, Initial residual = 3.63515e-06, Final residual = 5.11787e-08, No Iterations 1
smoothSolver:  Solving for Uy, Initial residual = 1.4192e-05, Final residual = 1.96679e-07, No Iterations 1
smoothSolver:  Solving for Uz, Initial residual = 1.69729e-07, Final residual = 1.69729e-07, No Iterations 0
diagonal:  Solving for rhoE, Initial residual = 0, Final residual = 0, No Iterations 0
smoothSolver:  Solving for e, Initial residual = 1.95487e-06, Final residual = 1.95487e-06, No Iterations 0
smoothSolver:  Solving for omega, Initial residual = 1.40028e-07, Final residual = 1.40028e-07, No Iterations 0
smoothSolver:  Solving for k, Initial residual = 1.53512e-07, Final residual = 1.53512e-07, No Iterations 0
ExecutionTime = 16.49 s  ClockTime = 16 s

deltaT = 1.91663e-05
Mean and max Courant Numbers = 0.0085379 0.50014
Time = 0.000409029

diagonal:  Solving for rho, Initial residual = 0, Final residual = 0, No Iterations 0
diagonal:  Solving for rhoUx, Initial residual = 0, Final residual = 0, No Iterations 0
diagonal:  Solving for rhoUy, Initial residual = 0, Final residual = 0, No Iterations 0
diagonal:  Solving for rhoUz, Initial residual = 0, Final residual = 0, No Iterations 0
smoothSolver:  Solving for Ux, Initial residual = 3.63834e-06, Final residual = 5.1263e-08, No Iterations 1
smoothSolver:  Solving for Uy, Initial residual = 1.42141e-05, Final residual = 1.9716e-07, No Iterations 1
smoothSolver:  Solving for Uz, Initial residual = 1.69381e-07, Final residual = 1.69381e-07, No Iterations 0
diagonal:  Solving for rhoE, Initial residual = 0, Final residual = 0, No Iterations 0
smoothSolver:  Solving for e, Initial residual = 1.94526e-06, Final residual = 1.94526e-06, No Iterations 0
smoothSolver:  Solving for omega, Initial residual = 1.44065e-07, Final residual = 1.44065e-07, No Iterations 0
smoothSolver:  Solving for k, Initial residual = 1.59337e-07, Final residual = 1.59337e-07, No Iterations 0
ExecutionTime = 16.95 s  ClockTime = 17 s

deltaT = 1.91609e-05
Mean and max Courant Numbers = 0.00853549 0.500083
Time = 0.00042819

diagonal:  Solving for rho, Initial residual = 0, Final residual = 0, No Iterations 0
diagonal:  Solving for rhoUx, Initial residual = 0, Final residual = 0, No Iterations 0
diagonal:  Solving for rhoUy, Initial residual = 0, Final residual = 0, No Iterations 0
diagonal:  Solving for rhoUz, Initial residual = 0, Final residual = 0, No Iterations 0
smoothSolver:  Solving for Ux, Initial residual = 3.64285e-06, Final residual = 5.13814e-08, No Iterations 1
smoothSolver:  Solving for Uy, Initial residual = 1.42407e-05, Final residual = 1.97745e-07, No Iterations 1
smoothSolver:  Solving for Uz, Initial residual = 1.6906e-07, Final residual = 1.6906e-07, No Iterations 0
diagonal:  Solving for rhoE, Initial residual = 0, Final residual = 0, No Iterations 0
smoothSolver:  Solving for e, Initial residual = 1.93631e-06, Final residual = 1.93631e-06, No Iterations 0
smoothSolver:  Solving for omega, Initial residual = 1.48182e-07, Final residual = 1.48182e-07, No Iterations 0
smoothSolver:  Solving for k, Initial residual = 1.65152e-07, Final residual = 1.65152e-07, No Iterations 0
ExecutionTime = 17.39 s  ClockTime = 17 s

deltaT = 1.91577e-05
Mean and max Courant Numbers = 0.00853405 0.500068
Time = 0.000447347

diagonal:  Solving for rho, Initial residual = 0, Final residual = 0, No Iterations 0
diagonal:  Solving for rhoUx, Initial residual = 0, Final residual = 0, No Iterations 0
diagonal:  Solving for rhoUy, Initial residual = 0, Final residual = 0, No Iterations 0
diagonal:  Solving for rhoUz, Initial residual = 0, Final residual = 0, No Iterations 0
smoothSolver:  Solving for Ux, Initial residual = 3.64832e-06, Final residual = 5.1524e-08, No Iterations 1
smoothSolver:  Solving for Uy, Initial residual = 1.42703e-05, Final residual = 1.98415e-07, No Iterations 1
smoothSolver:  Solving for Uz, Initial residual = 1.68757e-07, Final residual = 1.68757e-07, No Iterations 0
diagonal:  Solving for rhoE, Initial residual = 0, Final residual = 0, No Iterations 0
smoothSolver:  Solving for e, Initial residual = 1.92791e-06, Final residual = 1.92791e-06, No Iterations 0
smoothSolver:  Solving for omega, Initial residual = 1.52404e-07, Final residual = 1.52404e-07, No Iterations 0
smoothSolver:  Solving for k, Initial residual = 1.70959e-07, Final residual = 1.70959e-07, No Iterations 0
ExecutionTime = 17.85 s  ClockTime = 17 s

deltaT = 1.91551e-05
Mean and max Courant Numbers = 0.00853287 0.500047
Time = 0.000466502

diagonal:  Solving for rho, Initial residual = 0, Final residual = 0, No Iterations 0
diagonal:  Solving for rhoUx, Initial residual = 0, Final residual = 0, No Iterations 0
diagonal:  Solving for rhoUy, Initial residual = 0, Final residual = 0, No Iterations 0
diagonal:  Solving for rhoUz, Initial residual = 0, Final residual = 0, No Iterations 0
smoothSolver:  Solving for Ux, Initial residual = 3.65424e-06, Final residual = 5.16769e-08, No Iterations 1
smoothSolver:  Solving for Uy, Initial residual = 1.43013e-05, Final residual = 1.99114e-07, No Iterations 1
smoothSolver:  Solving for Uz, Initial residual = 1.68458e-07, Final residual = 1.68458e-07, No Iterations 0
diagonal:  Solving for rhoE, Initial residual = 0, Final residual = 0, No Iterations 0
smoothSolver:  Solving for e, Initial residual = 1.9198e-06, Final residual = 1.9198e-06, No Iterations 0
smoothSolver:  Solving for omega, Initial residual = 1.56651e-07, Final residual = 1.56651e-07, No Iterations 0
smoothSolver:  Solving for k, Initial residual = 1.76766e-07, Final residual = 1.76766e-07, No Iterations 0
ExecutionTime = 18.27 s  ClockTime = 18 s

deltaT = 1.91533e-05
Mean and max Courant Numbers = 0.00853205 0.500007
Time = 0.000485656

diagonal:  Solving for rho, Initial residual = 0, Final residual = 0, No Iterations 0
diagonal:  Solving for rhoUx, Initial residual = 0, Final residual = 0, No Iterations 0
diagonal:  Solving for rhoUy, Initial residual = 0, Final residual = 0, No Iterations 0
diagonal:  Solving for rhoUz, Initial residual = 0, Final residual = 0, No Iterations 0
smoothSolver:  Solving for Ux, Initial residual = 3.66038e-06, Final residual = 5.1837e-08, No Iterations 1
smoothSolver:  Solving for Uy, Initial residual = 1.43329e-05, Final residual = 1.99834e-07, No Iterations 1
smoothSolver:  Solving for Uz, Initial residual = 1.68167e-07, Final residual = 1.68167e-07, No Iterations 0
diagonal:  Solving for rhoE, Initial residual = 0, Final residual = 0, No Iterations 0
smoothSolver:  Solving for e, Initial residual = 1.91185e-06, Final residual = 1.91185e-06, No Iterations 0
smoothSolver:  Solving for omega, Initial residual = 1.60922e-07, Final residual = 1.60922e-07, No Iterations 0
smoothSolver:  Solving for k, Initial residual = 1.8256e-07, Final residual = 1.8256e-07, No Iterations 0
ExecutionTime = 18.71 s  ClockTime = 18 s

deltaT = 1.9153e-05
Mean and max Courant Numbers = 0.00853191 0.499941
Time = 0.000504809

diagonal:  Solving for rho, Initial residual = 0, Final residual = 0, No Iterations 0
diagonal:  Solving for rhoUx, Initial residual = 0, Final residual = 0, No Iterations 0
diagonal:  Solving for rhoUy, Initial residual = 0, Final residual = 0, No Iterations 0
diagonal:  Solving for rhoUz, Initial residual = 0, Final residual = 0, No Iterations 0
smoothSolver:  Solving for Ux, Initial residual = 3.66685e-06, Final residual = 5.20061e-08, No Iterations 1
smoothSolver:  Solving for Uy, Initial residual = 1.43661e-05, Final residual = 2.00583e-07, No Iterations 1
smoothSolver:  Solving for Uz, Initial residual = 1.67892e-07, Final residual = 1.67892e-07, No Iterations 0
diagonal:  Solving for rhoE, Initial residual = 0, Final residual = 0, No Iterations 0
smoothSolver:  Solving for e, Initial residual = 1.90388e-06, Final residual = 1.90388e-06, No Iterations 0
smoothSolver:  Solving for omega, Initial residual = 1.65268e-07, Final residual = 1.65268e-07, No Iterations 0
smoothSolver:  Solving for k, Initial residual = 1.88357e-07, Final residual = 1.88357e-07, No Iterations 0
ExecutionTime = 19.16 s  ClockTime = 19 s

deltaT = 1.91553e-05
Mean and max Courant Numbers = 0.00853289 0.499897
Time = 0.000523964

diagonal:  Solving for rho, Initial residual = 0, Final residual = 0, No Iterations 0
diagonal:  Solving for rhoUx, Initial residual = 0, Final residual = 0, No Iterations 0
diagonal:  Solving for rhoUy, Initial residual = 0, Final residual = 0, No Iterations 0
diagonal:  Solving for rhoUz, Initial residual = 0, Final residual = 0, No Iterations 0
smoothSolver:  Solving for Ux, Initial residual = 3.67358e-06, Final residual = 5.21862e-08, No Iterations 1
smoothSolver:  Solving for Uy, Initial residual = 1.44009e-05, Final residual = 2.01366e-07, No Iterations 1
smoothSolver:  Solving for Uz, Initial residual = 1.6764e-07, Final residual = 1.6764e-07, No Iterations 0
diagonal:  Solving for rhoE, Initial residual = 0, Final residual = 0, No Iterations 0
smoothSolver:  Solving for e, Initial residual = 1.89594e-06, Final residual = 1.89594e-06, No Iterations 0
smoothSolver:  Solving for omega, Initial residual = 1.69647e-07, Final residual = 1.69647e-07, No Iterations 0
smoothSolver:  Solving for k, Initial residual = 1.94156e-07, Final residual = 1.94156e-07, No Iterations 0
ExecutionTime = 19.6 s  ClockTime = 19 s

deltaT = 1.91592e-05
Mean and max Courant Numbers = 0.00853464 0.499829
Time = 0.000543123

diagonal:  Solving for rho, Initial residual = 0, Final residual = 0, No Iterations 0
diagonal:  Solving for rhoUx, Initial residual = 0, Final residual = 0, No Iterations 0
diagonal:  Solving for rhoUy, Initial residual = 0, Final residual = 0, No Iterations 0
diagonal:  Solving for rhoUz, Initial residual = 0, Final residual = 0, No Iterations 0
smoothSolver:  Solving for Ux, Initial residual = 3.68045e-06, Final residual = 5.23687e-08, No Iterations 1
smoothSolver:  Solving for Uy, Initial residual = 1.44362e-05, Final residual = 2.02162e-07, No Iterations 1
smoothSolver:  Solving for Uz, Initial residual = 1.67407e-07, Final residual = 1.67407e-07, No Iterations 0
diagonal:  Solving for rhoE, Initial residual = 0, Final residual = 0, No Iterations 0
smoothSolver:  Solving for e, Initial residual = 1.88774e-06, Final residual = 1.88774e-06, No Iterations 0
smoothSolver:  Solving for omega, Initial residual = 1.74027e-07, Final residual = 1.74027e-07, No Iterations 0
smoothSolver:  Solving for k, Initial residual = 1.99949e-07, Final residual = 1.99949e-07, No Iterations 0
ExecutionTime = 20.06 s  ClockTime = 20 s

deltaT = 1.91658e-05
Mean and max Courant Numbers = 0.00853754 0.499766
Time = 0.000562289

diagonal:  Solving for rho, Initial residual = 0, Final residual = 0, No Iterations 0
diagonal:  Solving for rhoUx, Initial residual = 0, Final residual = 0, No Iterations 0
diagonal:  Solving for rhoUy, Initial residual = 0, Final residual = 0, No Iterations 0
diagonal:  Solving for rhoUz, Initial residual = 0, Final residual = 0, No Iterations 0
smoothSolver:  Solving for Ux, Initial residual = 3.68764e-06, Final residual = 5.25579e-08, No Iterations 1
smoothSolver:  Solving for Uy, Initial residual = 1.4472e-05, Final residual = 2.02995e-07, No Iterations 1
smoothSolver:  Solving for Uz, Initial residual = 1.67198e-07, Final residual = 1.67198e-07, No Iterations 0
diagonal:  Solving for rhoE, Initial residual = 0, Final residual = 0, No Iterations 0
smoothSolver:  Solving for e, Initial residual = 1.87941e-06, Final residual = 1.87941e-06, No Iterations 0
smoothSolver:  Solving for omega, Initial residual = 1.78402e-07, Final residual = 1.78402e-07, No Iterations 0
smoothSolver:  Solving for k, Initial residual = 2.05753e-07, Final residual = 2.05753e-07, No Iterations 0
ExecutionTime = 20.5 s  ClockTime = 20 s

deltaT = 1.91748e-05
Mean and max Courant Numbers = 0.00854153 0.499714
Time = 0.000581464

diagonal:  Solving for rho, Initial residual = 0, Final residual = 0, No Iterations 0
diagonal:  Solving for rhoUx, Initial residual = 0, Final residual = 0, No Iterations 0
diagonal:  Solving for rhoUy, Initial residual = 0, Final residual = 0, No Iterations 0
diagonal:  Solving for rhoUz, Initial residual = 0, Final residual = 0, No Iterations 0
smoothSolver:  Solving for Ux, Initial residual = 3.69514e-06, Final residual = 5.27544e-08, No Iterations 1
smoothSolver:  Solving for Uy, Initial residual = 1.45076e-05, Final residual = 2.03869e-07, No Iterations 1
smoothSolver:  Solving for Uz, Initial residual = 1.67014e-07, Final residual = 1.67014e-07, No Iterations 0
diagonal:  Solving for rhoE, Initial residual = 0, Final residual = 0, No Iterations 0
smoothSolver:  Solving for e, Initial residual = 1.87104e-06, Final residual = 1.87104e-06, No Iterations 0
smoothSolver:  Solving for omega, Initial residual = 1.82764e-07, Final residual = 1.82764e-07, No Iterations 0
smoothSolver:  Solving for k, Initial residual = 2.11563e-07, Final residual = 2.11563e-07, No Iterations 0
ExecutionTime = 20.93 s  ClockTime = 21 s

deltaT = 1.91858e-05
Mean and max Courant Numbers = 0.00854641 0.499676
Time = 0.000600649

diagonal:  Solving for rho, Initial residual = 0, Final residual = 0, No Iterations 0
diagonal:  Solving for rhoUx, Initial residual = 0, Final residual = 0, No Iterations 0
diagonal:  Solving for rhoUy, Initial residual = 0, Final residual = 0, No Iterations 0
diagonal:  Solving for rhoUz, Initial residual = 0, Final residual = 0, No Iterations 0
smoothSolver:  Solving for Ux, Initial residual = 3.70288e-06, Final residual = 5.29574e-08, No Iterations 1
smoothSolver:  Solving for Uy, Initial residual = 1.45431e-05, Final residual = 2.04771e-07, No Iterations 1
smoothSolver:  Solving for Uz, Initial residual = 1.66849e-07, Final residual = 1.66849e-07, No Iterations 0
diagonal:  Solving for rhoE, Initial residual = 0, Final residual = 0, No Iterations 0
smoothSolver:  Solving for e, Initial residual = 1.86267e-06, Final residual = 1.86267e-06, No Iterations 0
smoothSolver:  Solving for omega, Initial residual = 1.87176e-07, Final residual = 1.87176e-07, No Iterations 0
smoothSolver:  Solving for k, Initial residual = 2.17383e-07, Final residual = 2.17383e-07, No Iterations 0
ExecutionTime = 21.36 s  ClockTime = 21 s

deltaT = 1.91982e-05
Mean and max Courant Numbers = 0.00855194 0.499628
Time = 0.000619848

diagonal:  Solving for rho, Initial residual = 0, Final residual = 0, No Iterations 0
diagonal:  Solving for rhoUx, Initial residual = 0, Final residual = 0, No Iterations 0
diagonal:  Solving for rhoUy, Initial residual = 0, Final residual = 0, No Iterations 0
diagonal:  Solving for rhoUz, Initial residual = 0, Final residual = 0, No Iterations 0
smoothSolver:  Solving for Ux, Initial residual = 3.71084e-06, Final residual = 5.31661e-08, No Iterations 1
smoothSolver:  Solving for Uy, Initial residual = 1.45787e-05, Final residual = 2.05692e-07, No Iterations 1
smoothSolver:  Solving for Uz, Initial residual = 1.66699e-07, Final residual = 1.66699e-07, No Iterations 0
diagonal:  Solving for rhoE, Initial residual = 0, Final residual = 0, No Iterations 0
smoothSolver:  Solving for e, Initial residual = 1.85429e-06, Final residual = 1.85429e-06, No Iterations 0
smoothSolver:  Solving for omega, Initial residual = 1.91592e-07, Final residual = 1.91592e-07, No Iterations 0
smoothSolver:  Solving for k, Initial residual = 2.23197e-07, Final residual = 2.23197e-07, No Iterations 0
ExecutionTime = 21.8 s  ClockTime = 21 s

deltaT = 1.92125e-05
Mean and max Courant Numbers = 0.00855829 0.499623
Time = 0.00063906

diagonal:  Solving for rho, Initial residual = 0, Final residual = 0, No Iterations 0
diagonal:  Solving for rhoUx, Initial residual = 0, Final residual = 0, No Iterations 0
diagonal:  Solving for rhoUy, Initial residual = 0, Final residual = 0, No Iterations 0
diagonal:  Solving for rhoUz, Initial residual = 0, Final residual = 0, No Iterations 0
smoothSolver:  Solving for Ux, Initial residual = 3.71905e-06, Final residual = 5.33784e-08, No Iterations 1
smoothSolver:  Solving for Uy, Initial residual = 1.46141e-05, Final residual = 2.06643e-07, No Iterations 1
smoothSolver:  Solving for Uz, Initial residual = 1.66565e-07, Final residual = 1.66565e-07, No Iterations 0
diagonal:  Solving for rhoE, Initial residual = 0, Final residual = 0, No Iterations 0
smoothSolver:  Solving for e, Initial residual = 1.84612e-06, Final residual = 1.84612e-06, No Iterations 0
smoothSolver:  Solving for omega, Initial residual = 1.95995e-07, Final residual = 1.95995e-07, No Iterations 0
smoothSolver:  Solving for k, Initial residual = 2.29009e-07, Final residual = 2.29009e-07, No Iterations 0
ExecutionTime = 22.26 s  ClockTime = 22 s

deltaT = 1.9227e-05
Mean and max Courant Numbers = 0.00856473 0.499628
Time = 0.000658287

diagonal:  Solving for rho, Initial residual = 0, Final residual = 0, No Iterations 0
diagonal:  Solving for rhoUx, Initial residual = 0, Final residual = 0, No Iterations 0
diagonal:  Solving for rhoUy, Initial residual = 0, Final residual = 0, No Iterations 0
diagonal:  Solving for rhoUz, Initial residual = 0, Final residual = 0, No Iterations 0
smoothSolver:  Solving for Ux, Initial residual = 3.72722e-06, Final residual = 5.35844e-08, No Iterations 1
smoothSolver:  Solving for Uy, Initial residual = 1.46486e-05, Final residual = 2.0757e-07, No Iterations 1
smoothSolver:  Solving for Uz, Initial residual = 1.66434e-07, Final residual = 1.66434e-07, No Iterations 0
diagonal:  Solving for rhoE, Initial residual = 0, Final residual = 0, No Iterations 0
smoothSolver:  Solving for e, Initial residual = 1.83796e-06, Final residual = 1.83796e-06, No Iterations 0
smoothSolver:  Solving for omega, Initial residual = 2.00356e-07, Final residual = 2.00356e-07, No Iterations 0
smoothSolver:  Solving for k, Initial residual = 2.3481e-07, Final residual = 2.3481e-07, No Iterations 0
ExecutionTime = 22.77 s  ClockTime = 22 s

deltaT = 1.92413e-05
Mean and max Courant Numbers = 0.0085711 0.499596
Time = 0.000677529

diagonal:  Solving for rho, Initial residual = 0, Final residual = 0, No Iterations 0
diagonal:  Solving for rhoUx, Initial residual = 0, Final residual = 0, No Iterations 0
diagonal:  Solving for rhoUy, Initial residual = 0, Final residual = 0, No Iterations 0
diagonal:  Solving for rhoUz, Initial residual = 0, Final residual = 0, No Iterations 0
smoothSolver:  Solving for Ux, Initial residual = 3.73518e-06, Final residual = 5.37855e-08, No Iterations 1
smoothSolver:  Solving for Uy, Initial residual = 1.46826e-05, Final residual = 2.08477e-07, No Iterations 1
smoothSolver:  Solving for Uz, Initial residual = 1.66297e-07, Final residual = 1.66297e-07, No Iterations 0
diagonal:  Solving for rhoE, Initial residual = 0, Final residual = 0, No Iterations 0
smoothSolver:  Solving for e, Initial residual = 1.83007e-06, Final residual = 1.83007e-06, No Iterations 0
smoothSolver:  Solving for omega, Initial residual = 2.04696e-07, Final residual = 2.04696e-07, No Iterations 0
smoothSolver:  Solving for k, Initial residual = 2.40585e-07, Final residual = 2.40585e-07, No Iterations 0
ExecutionTime = 23.29 s  ClockTime = 23 s

deltaT = 1.92569e-05
Mean and max Courant Numbers = 0.00857801 0.499621
Time = 0.000696785

diagonal:  Solving for rho, Initial residual = 0, Final residual = 0, No Iterations 0
diagonal:  Solving for rhoUx, Initial residual = 0, Final residual = 0, No Iterations 0
diagonal:  Solving for rhoUy, Initial residual = 0, Final residual = 0, No Iterations 0
diagonal:  Solving for rhoUz, Initial residual = 0, Final residual = 0, No Iterations 0
smoothSolver:  Solving for Ux, Initial residual = 3.7435e-06, Final residual = 5.39948e-08, No Iterations 1
smoothSolver:  Solving for Uy, Initial residual = 1.47179e-05, Final residual = 2.09405e-07, No Iterations 1
smoothSolver:  Solving for Uz, Initial residual = 1.66169e-07, Final residual = 1.66169e-07, No Iterations 0
diagonal:  Solving for rhoE, Initial residual = 0, Final residual = 0, No Iterations 0
smoothSolver:  Solving for e, Initial residual = 1.82231e-06, Final residual = 1.82231e-06, No Iterations 0
smoothSolver:  Solving for omega, Initial residual = 2.09035e-07, Final residual = 2.09035e-07, No Iterations 0
smoothSolver:  Solving for k, Initial residual = 2.46337e-07, Final residual = 2.46337e-07, No Iterations 0
ExecutionTime = 23.8 s  ClockTime = 23 s

deltaT = 1.92715e-05
Mean and max Courant Numbers = 0.0085845 0.499669
Time = 0.000716057

diagonal:  Solving for rho, Initial residual = 0, Final residual = 0, No Iterations 0
diagonal:  Solving for rhoUx, Initial residual = 0, Final residual = 0, No Iterations 0
diagonal:  Solving for rhoUy, Initial residual = 0, Final residual = 0, No Iterations 0
diagonal:  Solving for rhoUz, Initial residual = 0, Final residual = 0, No Iterations 0
smoothSolver:  Solving for Ux, Initial residual = 3.75164e-06, Final residual = 5.41985e-08, No Iterations 1
smoothSolver:  Solving for Uy, Initial residual = 1.47526e-05, Final residual = 2.10312e-07, No Iterations 1
smoothSolver:  Solving for Uz, Initial residual = 1.6603e-07, Final residual = 1.6603e-07, No Iterations 0
diagonal:  Solving for rhoE, Initial residual = 0, Final residual = 0, No Iterations 0
smoothSolver:  Solving for e, Initial residual = 1.81449e-06, Final residual = 1.81449e-06, No Iterations 0
smoothSolver:  Solving for omega, Initial residual = 2.13307e-07, Final residual = 2.13307e-07, No Iterations 0
smoothSolver:  Solving for k, Initial residual = 2.52047e-07, Final residual = 2.52047e-07, No Iterations 0
ExecutionTime = 24.29 s  ClockTime = 24 s

deltaT = 1.92843e-05
Mean and max Courant Numbers = 0.00859017 0.499709
Time = 0.000735341

diagonal:  Solving for rho, Initial residual = 0, Final residual = 0, No Iterations 0
diagonal:  Solving for rhoUx, Initial residual = 0, Final residual = 0, No Iterations 0
diagonal:  Solving for rhoUy, Initial residual = 0, Final residual = 0, No Iterations 0
diagonal:  Solving for rhoUz, Initial residual = 0, Final residual = 0, No Iterations 0
smoothSolver:  Solving for Ux, Initial residual = 3.7596e-06, Final residual = 5.43913e-08, No Iterations 1
smoothSolver:  Solving for Uy, Initial residual = 1.47863e-05, Final residual = 2.11187e-07, No Iterations 1
smoothSolver:  Solving for Uz, Initial residual = 1.65873e-07, Final residual = 1.65873e-07, No Iterations 0
diagonal:  Solving for rhoE, Initial residual = 0, Final residual = 0, No Iterations 0
smoothSolver:  Solving for e, Initial residual = 1.80634e-06, Final residual = 1.80634e-06, No Iterations 0
smoothSolver:  Solving for omega, Initial residual = 2.17496e-07, Final residual = 2.17496e-07, No Iterations 0
smoothSolver:  Solving for k, Initial residual = 2.57708e-07, Final residual = 2.57708e-07, No Iterations 0
ExecutionTime = 24.77 s  ClockTime = 24 s

deltaT = 1.92955e-05
Mean and max Courant Numbers = 0.00859515 0.499725
Time = 0.000754637

diagonal:  Solving for rho, Initial residual = 0, Final residual = 0, No Iterations 0
diagonal:  Solving for rhoUx, Initial residual = 0, Final residual = 0, No Iterations 0
diagonal:  Solving for rhoUy, Initial residual = 0, Final residual = 0, No Iterations 0
diagonal:  Solving for rhoUz, Initial residual = 0, Final residual = 0, No Iterations 0
smoothSolver:  Solving for Ux, Initial residual = 3.76732e-06, Final residual = 5.45852e-08, No Iterations 1
smoothSolver:  Solving for Uy, Initial residual = 1.48197e-05, Final residual = 2.12054e-07, No Iterations 1
smoothSolver:  Solving for Uz, Initial residual = 1.65701e-07, Final residual = 1.65701e-07, No Iterations 0
diagonal:  Solving for rhoE, Initial residual = 0, Final residual = 0, No Iterations 0
smoothSolver:  Solving for e, Initial residual = 1.79766e-06, Final residual = 1.79766e-06, No Iterations 0
smoothSolver:  Solving for omega, Initial residual = 2.21595e-07, Final residual = 2.21595e-07, No Iterations 0
smoothSolver:  Solving for k, Initial residual = 2.63319e-07, Final residual = 2.63319e-07, No Iterations 0
ExecutionTime = 25.28 s  ClockTime = 25 s

deltaT = 1.93061e-05
Mean and max Courant Numbers = 0.00859987 0.499815
Time = 0.000773943

diagonal:  Solving for rho, Initial residual = 0, Final residual = 0, No Iterations 0
diagonal:  Solving for rhoUx, Initial residual = 0, Final residual = 0, No Iterations 0
diagonal:  Solving for rhoUy, Initial residual = 0, Final residual = 0, No Iterations 0
diagonal:  Solving for rhoUz, Initial residual = 0, Final residual = 0, No Iterations 0
smoothSolver:  Solving for Ux, Initial residual = 3.77476e-06, Final residual = 5.47873e-08, No Iterations 1
smoothSolver:  Solving for Uy, Initial residual = 1.48527e-05, Final residual = 2.12955e-07, No Iterations 1
smoothSolver:  Solving for Uz, Initial residual = 1.65523e-07, Final residual = 1.65523e-07, No Iterations 0
diagonal:  Solving for rhoE, Initial residual = 0, Final residual = 0, No Iterations 0
smoothSolver:  Solving for e, Initial residual = 1.78849e-06, Final residual = 1.78849e-06, No Iterations 0
smoothSolver:  Solving for omega, Initial residual = 2.25623e-07, Final residual = 2.25623e-07, No Iterations 0
smoothSolver:  Solving for k, Initial residual = 2.68895e-07, Final residual = 2.68895e-07, No Iterations 0
ExecutionTime = 25.78 s  ClockTime = 25 s

deltaT = 1.93132e-05
Mean and max Courant Numbers = 0.00860303 0.499794
Time = 0.000793256

diagonal:  Solving for rho, Initial residual = 0, Final residual = 0, No Iterations 0
diagonal:  Solving for rhoUx, Initial residual = 0, Final residual = 0, No Iterations 0
diagonal:  Solving for rhoUy, Initial residual = 0, Final residual = 0, No Iterations 0
diagonal:  Solving for rhoUz, Initial residual = 0, Final residual = 0, No Iterations 0
smoothSolver:  Solving for Ux, Initial residual = 3.78133e-06, Final residual = 5.49819e-08, No Iterations 1
smoothSolver:  Solving for Uy, Initial residual = 1.48826e-05, Final residual = 2.13805e-07, No Iterations 1
smoothSolver:  Solving for Uz, Initial residual = 1.65315e-07, Final residual = 1.65315e-07, No Iterations 0
diagonal:  Solving for rhoE, Initial residual = 0, Final residual = 0, No Iterations 0
smoothSolver:  Solving for e, Initial residual = 1.77868e-06, Final residual = 1.77868e-06, No Iterations 0
smoothSolver:  Solving for omega, Initial residual = 2.29505e-07, Final residual = 2.29505e-07, No Iterations 0
smoothSolver:  Solving for k, Initial residual = 2.74393e-07, Final residual = 2.74393e-07, No Iterations 0
ExecutionTime = 26.28 s  ClockTime = 26 s

deltaT = 1.93212e-05
Mean and max Courant Numbers = 0.00860657 0.499924
Time = 0.000812577

diagonal:  Solving for rho, Initial residual = 0, Final residual = 0, No Iterations 0
diagonal:  Solving for rhoUx, Initial residual = 0, Final residual = 0, No Iterations 0
diagonal:  Solving for rhoUy, Initial residual = 0, Final residual = 0, No Iterations 0
diagonal:  Solving for rhoUz, Initial residual = 0, Final residual = 0, No Iterations 0
smoothSolver:  Solving for Ux, Initial residual = 3.78767e-06, Final residual = 5.51875e-08, No Iterations 1
smoothSolver:  Solving for Uy, Initial residual = 1.4912e-05, Final residual = 2.14691e-07, No Iterations 1
smoothSolver:  Solving for Uz, Initial residual = 1.65115e-07, Final residual = 1.65115e-07, No Iterations 0
diagonal:  Solving for rhoE, Initial residual = 0, Final residual = 0, No Iterations 0
smoothSolver:  Solving for e, Initial residual = 1.76893e-06, Final residual = 1.76893e-06, No Iterations 0
smoothSolver:  Solving for omega, Initial residual = 2.33315e-07, Final residual = 2.33315e-07, No Iterations 0
smoothSolver:  Solving for k, Initial residual = 2.79861e-07, Final residual = 2.79861e-07, No Iterations 0
ExecutionTime = 26.74 s  ClockTime = 26 s

deltaT = 1.93241e-05
Mean and max Courant Numbers = 0.00860786 0.499865
Time = 0.000831901

diagonal:  Solving for rho, Initial residual = 0, Final residual = 0, No Iterations 0
diagonal:  Solving for rhoUx, Initial residual = 0, Final residual = 0, No Iterations 0
diagonal:  Solving for rhoUy, Initial residual = 0, Final residual = 0, No Iterations 0
diagonal:  Solving for rhoUz, Initial residual = 0, Final residual = 0, No Iterations 0
smoothSolver:  Solving for Ux, Initial residual = 3.79265e-06, Final residual = 5.53642e-08, No Iterations 1
smoothSolver:  Solving for Uy, Initial residual = 1.49373e-05, Final residual = 2.15461e-07, No Iterations 1
smoothSolver:  Solving for Uz, Initial residual = 1.64873e-07, Final residual = 1.64873e-07, No Iterations 0
diagonal:  Solving for rhoE, Initial residual = 0, Final residual = 0, No Iterations 0
smoothSolver:  Solving for e, Initial residual = 1.75871e-06, Final residual = 1.75871e-06, No Iterations 0
smoothSolver:  Solving for omega, Initial residual = 2.36972e-07, Final residual = 2.36972e-07, No Iterations 0
smoothSolver:  Solving for k, Initial residual = 2.85201e-07, Final residual = 2.85201e-07, No Iterations 0
ExecutionTime = 27.18 s  ClockTime = 27 s

deltaT = 1.93294e-05
Mean and max Courant Numbers = 0.00861017 0.499579
Time = 0.000851231

diagonal:  Solving for rho, Initial residual = 0, Final residual = 0, No Iterations 0
diagonal:  Solving for rhoUx, Initial residual = 0, Final residual = 0, No Iterations 0
diagonal:  Solving for rhoUy, Initial residual = 0, Final residual = 0, No Iterations 0
diagonal:  Solving for rhoUz, Initial residual = 0, Final residual = 0, No Iterations 0
smoothSolver:  Solving for Ux, Initial residual = 3.79776e-06, Final residual = 5.55522e-08, No Iterations 1
smoothSolver:  Solving for Uy, Initial residual = 1.49623e-05, Final residual = 2.16262e-07, No Iterations 1
smoothSolver:  Solving for Uz, Initial residual = 1.64649e-07, Final residual = 1.64649e-07, No Iterations 0
diagonal:  Solving for rhoE, Initial residual = 0, Final residual = 0, No Iterations 0
smoothSolver:  Solving for e, Initial residual = 1.74855e-06, Final residual = 1.74855e-06, No Iterations 0
smoothSolver:  Solving for omega, Initial residual = 2.40621e-07, Final residual = 2.40621e-07, No Iterations 0
smoothSolver:  Solving for k, Initial residual = 2.90524e-07, Final residual = 2.90524e-07, No Iterations 0
ExecutionTime = 27.61 s  ClockTime = 27 s

deltaT = 1.93457e-05
Mean and max Courant Numbers = 0.00861741 0.499429
Time = 0.000870576

diagonal:  Solving for rho, Initial residual = 0, Final residual = 0, No Iterations 0
diagonal:  Solving for rhoUx, Initial residual = 0, Final residual = 0, No Iterations 0
diagonal:  Solving for rhoUy, Initial residual = 0, Final residual = 0, No Iterations 0
diagonal:  Solving for rhoUz, Initial residual = 0, Final residual = 0, No Iterations 0
smoothSolver:  Solving for Ux, Initial residual = 3.8047e-06, Final residual = 5.58001e-08, No Iterations 1
smoothSolver:  Solving for Uy, Initial residual = 1.49947e-05, Final residual = 2.17277e-07, No Iterations 1
smoothSolver:  Solving for Uz, Initial residual = 1.64517e-07, Final residual = 1.64517e-07, No Iterations 0
diagonal:  Solving for rhoE, Initial residual = 0, Final residual = 0, No Iterations 0
smoothSolver:  Solving for e, Initial residual = 1.739e-06, Final residual = 1.739e-06, No Iterations 0
smoothSolver:  Solving for omega, Initial residual = 2.44337e-07, Final residual = 2.44337e-07, No Iterations 0
smoothSolver:  Solving for k, Initial residual = 2.9597e-07, Final residual = 2.9597e-07, No Iterations 0
ExecutionTime = 28.06 s  ClockTime = 28 s

deltaT = 1.93678e-05
Mean and max Courant Numbers = 0.00862724 0.499193
Time = 0.000889944

diagonal:  Solving for rho, Initial residual = 0, Final residual = 0, No Iterations 0
diagonal:  Solving for rhoUx, Initial residual = 0, Final residual = 0, No Iterations 0
diagonal:  Solving for rhoUy, Initial residual = 0, Final residual = 0, No Iterations 0
diagonal:  Solving for rhoUz, Initial residual = 0, Final residual = 0, No Iterations 0
smoothSolver:  Solving for Ux, Initial residual = 3.8123e-06, Final residual = 5.60728e-08, No Iterations 1
smoothSolver:  Solving for Uy, Initial residual = 1.50301e-05, Final residual = 2.18386e-07, No Iterations 1
smoothSolver:  Solving for Uz, Initial residual = 1.64432e-07, Final residual = 1.64432e-07, No Iterations 0
diagonal:  Solving for rhoE, Initial residual = 0, Final residual = 0, No Iterations 0
smoothSolver:  Solving for e, Initial residual = 1.72943e-06, Final residual = 1.72943e-06, No Iterations 0
smoothSolver:  Solving for omega, Initial residual = 2.48093e-07, Final residual = 2.48093e-07, No Iterations 0
smoothSolver:  Solving for k, Initial residual = 3.01474e-07, Final residual = 3.01474e-07, No Iterations 0
ExecutionTime = 28.52 s  ClockTime = 28 s

deltaT = 1.93991e-05
Mean and max Courant Numbers = 0.00864117 0.499317
Time = 0.000909343

diagonal:  Solving for rho, Initial residual = 0, Final residual = 0, No Iterations 0
diagonal:  Solving for rhoUx, Initial residual = 0, Final residual = 0, No Iterations 0
diagonal:  Solving for rhoUy, Initial residual = 0, Final residual = 0, No Iterations 0
diagonal:  Solving for rhoUz, Initial residual = 0, Final residual = 0, No Iterations 0
smoothSolver:  Solving for Ux, Initial residual = 3.82141e-06, Final residual = 5.63904e-08, No Iterations 1
smoothSolver:  Solving for Uy, Initial residual = 1.50709e-05, Final residual = 2.19644e-07, No Iterations 1
smoothSolver:  Solving for Uz, Initial residual = 1.64424e-07, Final residual = 1.64424e-07, No Iterations 0
diagonal:  Solving for rhoE, Initial residual = 0, Final residual = 0, No Iterations 0
smoothSolver:  Solving for e, Initial residual = 1.72012e-06, Final residual = 1.72012e-06, No Iterations 0
smoothSolver:  Solving for omega, Initial residual = 2.51902e-07, Final residual = 2.51902e-07, No Iterations 0
smoothSolver:  Solving for k, Initial residual = 3.07077e-07, Final residual = 3.07077e-07, No Iterations 0
ExecutionTime = 28.99 s  ClockTime = 29 s

deltaT = 1.94256e-05
Mean and max Courant Numbers = 0.00865297 0.500187
Time = 0.000928769

diagonal:  Solving for rho, Initial residual = 0, Final residual = 0, No Iterations 0
diagonal:  Solving for rhoUx, Initial residual = 0, Final residual = 0, No Iterations 0
diagonal:  Solving for rhoUy, Initial residual = 0, Final residual = 0, No Iterations 0
diagonal:  Solving for rhoUz, Initial residual = 0, Final residual = 0, No Iterations 0
smoothSolver:  Solving for Ux, Initial residual = 3.82934e-06, Final residual = 5.66703e-08, No Iterations 1
smoothSolver:  Solving for Uy, Initial residual = 1.51069e-05, Final residual = 2.20743e-07, No Iterations 1
smoothSolver:  Solving for Uz, Initial residual = 1.64375e-07, Final residual = 1.64375e-07, No Iterations 0
diagonal:  Solving for rhoE, Initial residual = 0, Final residual = 0, No Iterations 0
smoothSolver:  Solving for e, Initial residual = 1.70994e-06, Final residual = 1.70994e-06, No Iterations 0
smoothSolver:  Solving for omega, Initial residual = 2.55579e-07, Final residual = 2.55579e-07, No Iterations 0
smoothSolver:  Solving for k, Initial residual = 3.12558e-07, Final residual = 3.12558e-07, No Iterations 0
ExecutionTime = 29.45 s  ClockTime = 29 s

deltaT = 1.94183e-05
Mean and max Courant Numbers = 0.00864973 0.500473
Time = 0.000948187

diagonal:  Solving for rho, Initial residual = 0, Final residual = 0, No Iterations 0
diagonal:  Solving for rhoUx, Initial residual = 0, Final residual = 0, No Iterations 0
diagonal:  Solving for rhoUy, Initial residual = 0, Final residual = 0, No Iterations 0
diagonal:  Solving for rhoUz, Initial residual = 0, Final residual = 0, No Iterations 0
smoothSolver:  Solving for Ux, Initial residual = 3.83028e-06, Final residual = 5.67419e-08, No Iterations 1
smoothSolver:  Solving for Uy, Initial residual = 1.51135e-05, Final residual = 2.21014e-07, No Iterations 1
smoothSolver:  Solving for Uz, Initial residual = 1.64041e-07, Final residual = 1.64041e-07, No Iterations 0
diagonal:  Solving for rhoE, Initial residual = 0, Final residual = 0, No Iterations 0
smoothSolver:  Solving for e, Initial residual = 1.69651e-06, Final residual = 1.69651e-06, No Iterations 0
smoothSolver:  Solving for omega, Initial residual = 2.58727e-07, Final residual = 2.58727e-07, No Iterations 0
smoothSolver:  Solving for k, Initial residual = 3.17442e-07, Final residual = 3.17442e-07, No Iterations 0
ExecutionTime = 29.91 s  ClockTime = 30 s

deltaT = 1.94e-05
Mean and max Courant Numbers = 0.00864154 0.500861
Time = 0.000967587

diagonal:  Solving for rho, Initial residual = 0, Final residual = 0, No Iterations 0
diagonal:  Solving for rhoUx, Initial residual = 0, Final residual = 0, No Iterations 0
diagonal:  Solving for rhoUy, Initial residual = 0, Final residual = 0, No Iterations 0
diagonal:  Solving for rhoUz, Initial residual = 0, Final residual = 0, No Iterations 0
smoothSolver:  Solving for Ux, Initial residual = 3.82878e-06, Final residual = 5.67353e-08, No Iterations 1
smoothSolver:  Solving for Uy, Initial residual = 1.51092e-05, Final residual = 2.20968e-07, No Iterations 1
smoothSolver:  Solving for Uz, Initial residual = 1.63613e-07, Final residual = 1.63613e-07, No Iterations 0
diagonal:  Solving for rhoE, Initial residual = 0, Final residual = 0, No Iterations 0
smoothSolver:  Solving for e, Initial residual = 1.68185e-06, Final residual = 1.68185e-06, No Iterations 0
smoothSolver:  Solving for omega, Initial residual = 2.61606e-07, Final residual = 2.61606e-07, No Iterations 0
smoothSolver:  Solving for k, Initial residual = 3.22067e-07, Final residual = 3.22067e-07, No Iterations 0
ExecutionTime = 30.36 s  ClockTime = 30 s

deltaT = 1.93667e-05
Mean and max Courant Numbers = 0.00862668 0.500792
Time = 0.000986954

diagonal:  Solving for rho, Initial residual = 0, Final residual = 0, No Iterations 0
diagonal:  Solving for rhoUx, Initial residual = 0, Final residual = 0, No Iterations 0
diagonal:  Solving for rhoUy, Initial residual = 0, Final residual = 0, No Iterations 0
diagonal:  Solving for rhoUz, Initial residual = 0, Final residual = 0, No Iterations 0
smoothSolver:  Solving for Ux, Initial residual = 3.82429e-06, Final residual = 5.66309e-08, No Iterations 1
smoothSolver:  Solving for Uy, Initial residual = 1.5091e-05, Final residual = 2.20519e-07, No Iterations 1
smoothSolver:  Solving for Uz, Initial residual = 1.63059e-07, Final residual = 1.63059e-07, No Iterations 0
diagonal:  Solving for rhoE, Initial residual = 0, Final residual = 0, No Iterations 0
smoothSolver:  Solving for e, Initial residual = 1.66594e-06, Final residual = 1.66594e-06, No Iterations 0
smoothSolver:  Solving for omega, Initial residual = 2.64222e-07, Final residual = 2.64222e-07, No Iterations 0
smoothSolver:  Solving for k, Initial residual = 3.26356e-07, Final residual = 3.26356e-07, No Iterations 0
ExecutionTime = 30.82 s  ClockTime = 30 s

deltaT = 1.93361e-05
Mean and max Courant Numbers = 0.00861303 0.500501
Time = 0.00100629

diagonal:  Solving for rho, Initial residual = 0, Final residual = 0, No Iterations 0
diagonal:  Solving for rhoUx, Initial residual = 0, Final residual = 0, No Iterations 0
diagonal:  Solving for rhoUy, Initial residual = 0, Final residual = 0, No Iterations 0
diagonal:  Solving for rhoUz, Initial residual = 0, Final residual = 0, No Iterations 0
smoothSolver:  Solving for Ux, Initial residual = 3.82015e-06, Final residual = 5.65318e-08, No Iterations 1
smoothSolver:  Solving for Uy, Initial residual = 1.50742e-05, Final residual = 2.20082e-07, No Iterations 1
smoothSolver:  Solving for Uz, Initial residual = 1.62528e-07, Final residual = 1.62528e-07, No Iterations 0
diagonal:  Solving for rhoE, Initial residual = 0, Final residual = 0, No Iterations 0
smoothSolver:  Solving for e, Initial residual = 1.65024e-06, Final residual = 1.65024e-06, No Iterations 0
[...]
smoothSolver:  Solving for omega, Initial residual = 8.20936e-07, Final residual = 8.20936e-07, No Iterations 0
smoothSolver:  Solving for k, Initial residual = 1.01503e-06, Final residual = 1.98727e-08, No Iterations 1
ExecutionTime = 380.77 s  ClockTime = 380 s

deltaT = 1.88277e-05
Mean and max Courant Numbers = 0.00838541 0.500196
Time = 0.01471

diagonal:  Solving for rho, Initial residual = 0, Final residual = 0, No Iterations 0
diagonal:  Solving for rhoUx, Initial residual = 0, Final residual = 0, No Iterations 0
diagonal:  Solving for rhoUy, Initial residual = 0, Final residual = 0, No Iterations 0
diagonal:  Solving for rhoUz, Initial residual = 0, Final residual = 0, No Iterations 0
smoothSolver:  Solving for Ux, Initial residual = 6.08378e-06, Final residual = 6.86079e-08, No Iterations 1
smoothSolver:  Solving for Uy, Initial residual = 1.66736e-05, Final residual = 1.88661e-07, No Iterations 1
smoothSolver:  Solving for Uz, Initial residual = 1.15478e-07, Final residual = 1.15478e-07, No Iterations 0
diagonal:  Solving for rhoE, Initial residual = 0, Final residual = 0, No Iterations 0
smoothSolver:  Solving for e, Initial residual = 6.69928e-07, Final residual = 6.69928e-07, No Iterations 0
smoothSolver:  Solving for omega, Initial residual = 8.21694e-07, Final residual = 8.21694e-07, No Iterations 0
smoothSolver:  Solving for k, Initial residual = 1.01541e-06, Final residual = 1.98621e-08, No Iterations 1
ExecutionTime = 381.19 s  ClockTime = 381 s

deltaT = 1.88203e-05
Mean and max Courant Numbers = 0.00838213 0.500194
Time = 0.0147289

diagonal:  Solving for rho, Initial residual = 0, Final residual = 0, No Iterations 0
diagonal:  Solving for rhoUx, Initial residual = 0, Final residual = 0, No Iterations 0
diagonal:  Solving for rhoUy, Initial residual = 0, Final residual = 0, No Iterations 0
diagonal:  Solving for rhoUz, Initial residual = 0, Final residual = 0, No Iterations 0
smoothSolver:  Solving for Ux, Initial residual = 6.0764e-06, Final residual = 6.84734e-08, No Iterations 1
smoothSolver:  Solving for Uy, Initial residual = 1.66508e-05, Final residual = 1.883e-07, No Iterations 1
smoothSolver:  Solving for Uz, Initial residual = 1.15453e-07, Final residual = 1.15453e-07, No Iterations 0
diagonal:  Solving for rhoE, Initial residual = 0, Final residual = 0, No Iterations 0
smoothSolver:  Solving for e, Initial residual = 6.69243e-07, Final residual = 6.69243e-07, No Iterations 0
smoothSolver:  Solving for omega, Initial residual = 8.22153e-07, Final residual = 8.22153e-07, No Iterations 0
smoothSolver:  Solving for k, Initial residual = 1.0154e-06, Final residual = 1.98361e-08, No Iterations 1
ExecutionTime = 381.63 s  ClockTime = 381 s

deltaT = 1.8813e-05
Mean and max Courant Numbers = 0.00837887 0.500167
Time = 0.0147477

diagonal:  Solving for rho, Initial residual = 0, Final residual = 0, No Iterations 0
diagonal:  Solving for rhoUx, Initial residual = 0, Final residual = 0, No Iterations 0
diagonal:  Solving for rhoUy, Initial residual = 0, Final residual = 0, No Iterations 0
diagonal:  Solving for rhoUz, Initial residual = 0, Final residual = 0, No Iterations 0
smoothSolver:  Solving for Ux, Initial residual = 6.06903e-06, Final residual = 6.83482e-08, No Iterations 1
smoothSolver:  Solving for Uy, Initial residual = 1.66282e-05, Final residual = 1.87917e-07, No Iterations 1
smoothSolver:  Solving for Uz, Initial residual = 1.15429e-07, Final residual = 1.15429e-07, No Iterations 0
diagonal:  Solving for rhoE, Initial residual = 0, Final residual = 0, No Iterations 0
smoothSolver:  Solving for e, Initial residual = 6.68567e-07, Final residual = 6.68567e-07, No Iterations 0
smoothSolver:  Solving for omega, Initial residual = 8.2259e-07, Final residual = 8.2259e-07, No Iterations 0
smoothSolver:  Solving for k, Initial residual = 1.01542e-06, Final residual = 1.98103e-08, No Iterations 1
ExecutionTime = 382.06 s  ClockTime = 382 s

deltaT = 1.88067e-05
Mean and max Courant Numbers = 0.00837607 0.500162
Time = 0.0147665

diagonal:  Solving for rho, Initial residual = 0, Final residual = 0, No Iterations 0
diagonal:  Solving for rhoUx, Initial residual = 0, Final residual = 0, No Iterations 0
diagonal:  Solving for rhoUy, Initial residual = 0, Final residual = 0, No Iterations 0
diagonal:  Solving for rhoUz, Initial residual = 0, Final residual = 0, No Iterations 0
smoothSolver:  Solving for Ux, Initial residual = 6.06233e-06, Final residual = 6.82492e-08, No Iterations 1
smoothSolver:  Solving for Uy, Initial residual = 1.66066e-05, Final residual = 1.87574e-07, No Iterations 1
smoothSolver:  Solving for Uz, Initial residual = 1.15415e-07, Final residual = 1.15415e-07, No Iterations 0
diagonal:  Solving for rhoE, Initial residual = 0, Final residual = 0, No Iterations 0
smoothSolver:  Solving for e, Initial residual = 6.67934e-07, Final residual = 6.67934e-07, No Iterations 0
smoothSolver:  Solving for omega, Initial residual = 8.23073e-07, Final residual = 8.23073e-07, No Iterations 0
smoothSolver:  Solving for k, Initial residual = 1.01549e-06, Final residual = 1.97861e-08, No Iterations 1
ExecutionTime = 382.49 s  ClockTime = 382 s

deltaT = 1.88006e-05
Mean and max Courant Numbers = 0.00837336 0.500116
Time = 0.0147853

diagonal:  Solving for rho, Initial residual = 0, Final residual = 0, No Iterations 0
diagonal:  Solving for rhoUx, Initial residual = 0, Final residual = 0, No Iterations 0
diagonal:  Solving for rhoUy, Initial residual = 0, Final residual = 0, No Iterations 0
diagonal:  Solving for rhoUz, Initial residual = 0, Final residual = 0, No Iterations 0
smoothSolver:  Solving for Ux, Initial residual = 6.05633e-06, Final residual = 6.81621e-08, No Iterations 1
smoothSolver:  Solving for Uy, Initial residual = 1.65869e-05, Final residual = 1.87236e-07, No Iterations 1
smoothSolver:  Solving for Uz, Initial residual = 1.15404e-07, Final residual = 1.15404e-07, No Iterations 0
diagonal:  Solving for rhoE, Initial residual = 0, Final residual = 0, No Iterations 0
smoothSolver:  Solving for e, Initial residual = 6.67287e-07, Final residual = 6.67287e-07, No Iterations 0
smoothSolver:  Solving for omega, Initial residual = 8.23611e-07, Final residual = 8.23611e-07, No Iterations 0
smoothSolver:  Solving for k, Initial residual = 1.01556e-06, Final residual = 1.97618e-08, No Iterations 1
ExecutionTime = 382.92 s  ClockTime = 383 s

deltaT = 1.87962e-05
Mean and max Courant Numbers = 0.00837142 0.500101
Time = 0.0148041

diagonal:  Solving for rho, Initial residual = 0, Final residual = 0, No Iterations 0
diagonal:  Solving for rhoUx, Initial residual = 0, Final residual = 0, No Iterations 0
diagonal:  Solving for rhoUy, Initial residual = 0, Final residual = 0, No Iterations 0
diagonal:  Solving for rhoUz, Initial residual = 0, Final residual = 0, No Iterations 0
smoothSolver:  Solving for Ux, Initial residual = 6.05124e-06, Final residual = 6.81004e-08, No Iterations 1
smoothSolver:  Solving for Uy, Initial residual = 1.65682e-05, Final residual = 1.86926e-07, No Iterations 1
smoothSolver:  Solving for Uz, Initial residual = 1.15405e-07, Final residual = 1.15405e-07, No Iterations 0
diagonal:  Solving for rhoE, Initial residual = 0, Final residual = 0, No Iterations 0
smoothSolver:  Solving for e, Initial residual = 6.66704e-07, Final residual = 6.66704e-07, No Iterations 0
smoothSolver:  Solving for omega, Initial residual = 8.24199e-07, Final residual = 8.24199e-07, No Iterations 0
smoothSolver:  Solving for k, Initial residual = 1.01572e-06, Final residual = 1.97412e-08, No Iterations 1
ExecutionTime = 383.37 s  ClockTime = 383 s

deltaT = 1.87925e-05
Mean and max Courant Numbers = 0.00836974 0.500068
Time = 0.0148229

diagonal:  Solving for rho, Initial residual = 0, Final residual = 0, No Iterations 0
diagonal:  Solving for rhoUx, Initial residual = 0, Final residual = 0, No Iterations 0
diagonal:  Solving for rhoUy, Initial residual = 0, Final residual = 0, No Iterations 0
diagonal:  Solving for rhoUz, Initial residual = 0, Final residual = 0, No Iterations 0
smoothSolver:  Solving for Ux, Initial residual = 6.047e-06, Final residual = 6.80495e-08, No Iterations 1
smoothSolver:  Solving for Uy, Initial residual = 1.65507e-05, Final residual = 1.86635e-07, No Iterations 1
smoothSolver:  Solving for Uz, Initial residual = 1.1541e-07, Final residual = 1.1541e-07, No Iterations 0
diagonal:  Solving for rhoE, Initial residual = 0, Final residual = 0, No Iterations 0
smoothSolver:  Solving for e, Initial residual = 6.6616e-07, Final residual = 6.6616e-07, No Iterations 0
smoothSolver:  Solving for omega, Initial residual = 8.24752e-07, Final residual = 8.24752e-07, No Iterations 0
smoothSolver:  Solving for k, Initial residual = 1.01595e-06, Final residual = 1.97213e-08, No Iterations 1
ExecutionTime = 383.79 s  ClockTime = 383 s

deltaT = 1.87899e-05
Mean and max Courant Numbers = 0.0083686 0.499898
Time = 0.0148417

diagonal:  Solving for rho, Initial residual = 0, Final residual = 0, No Iterations 0
diagonal:  Solving for rhoUx, Initial residual = 0, Final residual = 0, No Iterations 0
diagonal:  Solving for rhoUy, Initial residual = 0, Final residual = 0, No Iterations 0
diagonal:  Solving for rhoUz, Initial residual = 0, Final residual = 0, No Iterations 0
smoothSolver:  Solving for Ux, Initial residual = 6.04339e-06, Final residual = 6.80136e-08, No Iterations 1
smoothSolver:  Solving for Uy, Initial residual = 1.65349e-05, Final residual = 1.86406e-07, No Iterations 1
smoothSolver:  Solving for Uz, Initial residual = 1.15425e-07, Final residual = 1.15425e-07, No Iterations 0
diagonal:  Solving for rhoE, Initial residual = 0, Final residual = 0, No Iterations 0
smoothSolver:  Solving for e, Initial residual = 6.65679e-07, Final residual = 6.65679e-07, No Iterations 0
smoothSolver:  Solving for omega, Initial residual = 8.25347e-07, Final residual = 8.25347e-07, No Iterations 0
smoothSolver:  Solving for k, Initial residual = 1.01623e-06, Final residual = 1.97035e-08, No Iterations 1
ExecutionTime = 384.21 s  ClockTime = 384 s

deltaT = 1.87937e-05
Mean and max Courant Numbers = 0.00837031 0.499574
Time = 0.0148605

diagonal:  Solving for rho, Initial residual = 0, Final residual = 0, No Iterations 0
diagonal:  Solving for rhoUx, Initial residual = 0, Final residual = 0, No Iterations 0
diagonal:  Solving for rhoUy, Initial residual = 0, Final residual = 0, No Iterations 0
diagonal:  Solving for rhoUz, Initial residual = 0, Final residual = 0, No Iterations 0
smoothSolver:  Solving for Ux, Initial residual = 6.04191e-06, Final residual = 6.80315e-08, No Iterations 1
smoothSolver:  Solving for Uy, Initial residual = 1.65253e-05, Final residual = 1.86327e-07, No Iterations 1
smoothSolver:  Solving for Uz, Initial residual = 1.15484e-07, Final residual = 1.15484e-07, No Iterations 0
diagonal:  Solving for rhoE, Initial residual = 0, Final residual = 0, No Iterations 0
smoothSolver:  Solving for e, Initial residual = 6.65413e-07, Final residual = 6.65413e-07, No Iterations 0
smoothSolver:  Solving for omega, Initial residual = 8.26246e-07, Final residual = 8.26246e-07, No Iterations 0
smoothSolver:  Solving for k, Initial residual = 1.01684e-06, Final residual = 1.96981e-08, No Iterations 1
ExecutionTime = 384.67 s  ClockTime = 384 s

deltaT = 1.88097e-05
Mean and max Courant Numbers = 0.00837744 0.50002
Time = 0.0148793

diagonal:  Solving for rho, Initial residual = 0, Final residual = 0, No Iterations 0
diagonal:  Solving for rhoUx, Initial residual = 0, Final residual = 0, No Iterations 0
diagonal:  Solving for rhoUy, Initial residual = 0, Final residual = 0, No Iterations 0
diagonal:  Solving for rhoUz, Initial residual = 0, Final residual = 0, No Iterations 0
smoothSolver:  Solving for Ux, Initial residual = 6.04467e-06, Final residual = 6.81448e-08, No Iterations 1
smoothSolver:  Solving for Uy, Initial residual = 1.65257e-05, Final residual = 1.86474e-07, No Iterations 1
smoothSolver:  Solving for Uz, Initial residual = 1.15617e-07, Final residual = 1.15617e-07, No Iterations 0
diagonal:  Solving for rhoE, Initial residual = 0, Final residual = 0, No Iterations 0
smoothSolver:  Solving for e, Initial residual = 6.65543e-07, Final residual = 6.65543e-07, No Iterations 0
smoothSolver:  Solving for omega, Initial residual = 8.27616e-07, Final residual = 8.27616e-07, No Iterations 0
smoothSolver:  Solving for k, Initial residual = 1.01809e-06, Final residual = 1.97177e-08, No Iterations 1
ExecutionTime = 385.1 s  ClockTime = 385 s

deltaT = 1.8809e-05
Mean and max Courant Numbers = 0.00837711 0.500124
Time = 0.0148981

diagonal:  Solving for rho, Initial residual = 0, Final residual = 0, No Iterations 0
diagonal:  Solving for rhoUx, Initial residual = 0, Final residual = 0, No Iterations 0
diagonal:  Solving for rhoUy, Initial residual = 0, Final residual = 0, No Iterations 0
diagonal:  Solving for rhoUz, Initial residual = 0, Final residual = 0, No Iterations 0
smoothSolver:  Solving for Ux, Initial residual = 6.04218e-06, Final residual = 6.81359e-08, No Iterations 1
smoothSolver:  Solving for Uy, Initial residual = 1.65107e-05, Final residual = 1.86293e-07, No Iterations 1
smoothSolver:  Solving for Uz, Initial residual = 1.15646e-07, Final residual = 1.15646e-07, No Iterations 0
diagonal:  Solving for rhoE, Initial residual = 0, Final residual = 0, No Iterations 0
smoothSolver:  Solving for e, Initial residual = 6.65089e-07, Final residual = 6.65089e-07, No Iterations 0
smoothSolver:  Solving for omega, Initial residual = 8.28263e-07, Final residual = 8.28263e-07, No Iterations 0
smoothSolver:  Solving for k, Initial residual = 1.01844e-06, Final residual = 1.97034e-08, No Iterations 1
ExecutionTime = 385.54 s  ClockTime = 385 s

deltaT = 1.88043e-05
Mean and max Courant Numbers = 0.00837502 0.500131
Time = 0.0149169

diagonal:  Solving for rho, Initial residual = 0, Final residual = 0, No Iterations 0
diagonal:  Solving for rhoUx, Initial residual = 0, Final residual = 0, No Iterations 0
diagonal:  Solving for rhoUy, Initial residual = 0, Final residual = 0, No Iterations 0
diagonal:  Solving for rhoUz, Initial residual = 0, Final residual = 0, No Iterations 0
smoothSolver:  Solving for Ux, Initial residual = 6.0387e-06, Final residual = 6.81065e-08, No Iterations 1
smoothSolver:  Solving for Uy, Initial residual = 1.64927e-05, Final residual = 1.86091e-07, No Iterations 1
smoothSolver:  Solving for Uz, Initial residual = 1.1565e-07, Final residual = 1.1565e-07, No Iterations 0
diagonal:  Solving for rhoE, Initial residual = 0, Final residual = 0, No Iterations 0
smoothSolver:  Solving for e, Initial residual = 6.64502e-07, Final residual = 6.64502e-07, No Iterations 0
smoothSolver:  Solving for omega, Initial residual = 8.28736e-07, Final residual = 8.28736e-07, No Iterations 0
smoothSolver:  Solving for k, Initial residual = 1.01859e-06, Final residual = 1.96816e-08, No Iterations 1
ExecutionTime = 385.99 s  ClockTime = 386 s

deltaT = 1.87994e-05
Mean and max Courant Numbers = 0.00837284 0.500132
Time = 0.0149357

diagonal:  Solving for rho, Initial residual = 0, Final residual = 0, No Iterations 0
diagonal:  Solving for rhoUx, Initial residual = 0, Final residual = 0, No Iterations 0
diagonal:  Solving for rhoUy, Initial residual = 0, Final residual = 0, No Iterations 0
diagonal:  Solving for rhoUz, Initial residual = 0, Final residual = 0, No Iterations 0
smoothSolver:  Solving for Ux, Initial residual = 6.03498e-06, Final residual = 6.80781e-08, No Iterations 1
smoothSolver:  Solving for Uy, Initial residual = 1.6476e-05, Final residual = 1.8591e-07, No Iterations 1
smoothSolver:  Solving for Uz, Initial residual = 1.15653e-07, Final residual = 1.15653e-07, No Iterations 0
diagonal:  Solving for rhoE, Initial residual = 0, Final residual = 0, No Iterations 0
smoothSolver:  Solving for e, Initial residual = 6.63879e-07, Final residual = 6.63879e-07, No Iterations 0
smoothSolver:  Solving for omega, Initial residual = 8.29141e-07, Final residual = 8.29141e-07, No Iterations 0
smoothSolver:  Solving for k, Initial residual = 1.0187e-06, Final residual = 1.96598e-08, No Iterations 1
ExecutionTime = 386.41 s  ClockTime = 386 s

deltaT = 1.87944e-05
Mean and max Courant Numbers = 0.00837063 0.500129
Time = 0.0149545

diagonal:  Solving for rho, Initial residual = 0, Final residual = 0, No Iterations 0
diagonal:  Solving for rhoUx, Initial residual = 0, Final residual = 0, No Iterations 0
diagonal:  Solving for rhoUy, Initial residual = 0, Final residual = 0, No Iterations 0
diagonal:  Solving for rhoUz, Initial residual = 0, Final residual = 0, No Iterations 0
smoothSolver:  Solving for Ux, Initial residual = 6.03109e-06, Final residual = 6.80383e-08, No Iterations 1
smoothSolver:  Solving for Uy, Initial residual = 1.64578e-05, Final residual = 1.85684e-07, No Iterations 1
smoothSolver:  Solving for Uz, Initial residual = 1.15652e-07, Final residual = 1.15652e-07, No Iterations 0
diagonal:  Solving for rhoE, Initial residual = 0, Final residual = 0, No Iterations 0
smoothSolver:  Solving for e, Initial residual = 6.63223e-07, Final residual = 6.63223e-07, No Iterations 0
smoothSolver:  Solving for omega, Initial residual = 8.29461e-07, Final residual = 8.29461e-07, No Iterations 0
smoothSolver:  Solving for k, Initial residual = 1.01877e-06, Final residual = 1.96378e-08, No Iterations 1
ExecutionTime = 386.85 s  ClockTime = 386 s

deltaT = 1.87896e-05
Mean and max Courant Numbers = 0.00836848 0.500121
Time = 0.0149733

diagonal:  Solving for rho, Initial residual = 0, Final residual = 0, No Iterations 0
diagonal:  Solving for rhoUx, Initial residual = 0, Final residual = 0, No Iterations 0
diagonal:  Solving for rhoUy, Initial residual = 0, Final residual = 0, No Iterations 0
diagonal:  Solving for rhoUz, Initial residual = 0, Final residual = 0, No Iterations 0
smoothSolver:  Solving for Ux, Initial residual = 6.02694e-06, Final residual = 6.7999e-08, No Iterations 1
smoothSolver:  Solving for Uy, Initial residual = 1.64397e-05, Final residual = 1.85426e-07, No Iterations 1
smoothSolver:  Solving for Uz, Initial residual = 1.15649e-07, Final residual = 1.15649e-07, No Iterations 0
diagonal:  Solving for rhoE, Initial residual = 0, Final residual = 0, No Iterations 0
smoothSolver:  Solving for e, Initial residual = 6.62532e-07, Final residual = 6.62532e-07, No Iterations 0
smoothSolver:  Solving for omega, Initial residual = 8.29765e-07, Final residual = 8.29765e-07, No Iterations 0
smoothSolver:  Solving for k, Initial residual = 1.01883e-06, Final residual = 1.96156e-08, No Iterations 1
ExecutionTime = 387.29 s  ClockTime = 387 s

deltaT = 1.8785e-05
Mean and max Courant Numbers = 0.00836646 0.500086
Time = 0.014992

diagonal:  Solving for rho, Initial residual = 0, Final residual = 0, No Iterations 0
diagonal:  Solving for rhoUx, Initial residual = 0, Final residual = 0, No Iterations 0
diagonal:  Solving for rhoUy, Initial residual = 0, Final residual = 0, No Iterations 0
diagonal:  Solving for rhoUz, Initial residual = 0, Final residual = 0, No Iterations 0
smoothSolver:  Solving for Ux, Initial residual = 6.02318e-06, Final residual = 6.79718e-08, No Iterations 1
smoothSolver:  Solving for Uy, Initial residual = 1.64248e-05, Final residual = 1.85201e-07, No Iterations 1
smoothSolver:  Solving for Uz, Initial residual = 1.15648e-07, Final residual = 1.15648e-07, No Iterations 0
diagonal:  Solving for rhoE, Initial residual = 0, Final residual = 0, No Iterations 0
smoothSolver:  Solving for e, Initial residual = 6.61823e-07, Final residual = 6.61823e-07, No Iterations 0
smoothSolver:  Solving for omega, Initial residual = 8.30118e-07, Final residual = 8.30118e-07, No Iterations 0
smoothSolver:  Solving for k, Initial residual = 1.0189e-06, Final residual = 1.95945e-08, No Iterations 1
ExecutionTime = 387.73 s  ClockTime = 387 s

End

Finalising parallel run
