/*---------------------------------------------------------------------------*\
| =========                 |                                                 |
| \\      /  F ield         | OpenFOAM: The Open Source CFD Toolbox           |
|  \\    /   O peration     | Version:  2412                                  |
|   \\  /    A nd           | Website:  www.openfoam.com                      |
|    \\/     M anipulation  |                                                 |
\*---------------------------------------------------------------------------*/
Build  : _e5c6ccc3-20250814 OPENFOAM=2412 patch=250814 version=2412
Arch   : "LSB;label=32;scalar=64"
Exec   : simpleFoam -parallel
Date   : Jan 02 2026
Time   : 19:30:14
Host   : LAPTOP-FVD4ED85
PID    : 3759
I/O    : uncollated
Case   : /home/ericy/Rocket_CFD_ML/openfoam/combined_test_workflow
nProcs : 4
Hosts  :
(
    (LAPTOP-FVD4ED85 4)
)
Pstream initialized with:
    floatTransfer      : false
    maxCommsSize       : 0
    nProcsSimpleSum    : 0
    nonBlockingExchange: 0 (tuning: 0)
    exchange algorithm : 0
    commsType          : nonBlocking
    polling iterations : 0
trapFpe: Floating point exception trapping enabled (FOAM_SIGFPE).
fileModificationChecking : Monitoring run-time modified files using timeStampMaster (fileModificationSkew 5, maxFileModificationPolls 20)
allowSystemOperations : Allowing user-supplied system call operations

// * * * * * * * * * * * * * * * * * * * * * * * * * * * * * * * * * * * * * //
Create time

Create mesh for time = 0


SIMPLE: convergence criteria
    field p	 tolerance 0.0001
    field U	 tolerance 0.0001

Reading field p

Reading field U

Reading/calculating face flux field phi

Selecting incompressible transport model Newtonian
Selecting turbulence model type RAS
Selecting RAS turbulence model kOmegaSST
Selecting patchDistMethod meshWave
RAS
{
    model           kOmegaSST;
    turbulence      on;
    printCoeffs     on;
    alphaK1         0.85;
    alphaK2         1;
    alphaOmega1     0.5;
    alphaOmega2     0.856;
    gamma1          0.555556;
    gamma2          0.44;
    beta1           0.075;
    beta2           0.0828;
    betaStar        0.09;
    a1              0.31;
    b1              1;
    c1              10;
    F3              false;
    decayControl    false;
    kInf            0;
    omegaInf        0;
}

No MRF models present

No finite volume options present

Starting time loop

forceCoeffs forces:
    p: p
    U: U
    rho: rhoInf
    Freestream density (rhoInf) set to 1.225
    Not including porosity effects
    magUInf: 500
    lRef   : 3
    Aref   : 0.1
    rhoInf : 1.225
    Selecting all coefficients
    - Drag force: Cd
    - Drag force front: Cd(f)
    - Drag force rear: Cd(r)
    - Lift force: Cl
    - Lift force front: Cl(f)
    - Lift force rear: Cl(r)
    - Pitch moment: CmPitch
    - Roll moment: CmRoll
    - Yaw moment: CmYaw
    - Side force: Cs
    - Side force front: Cs(f)
    - Side force rear: Cs(r)


Time = 1

smoothSolver:  Solving for Ux, Initial residual = 0.356014, Final residual = 0.0194555, No Iterations 2
smoothSolver:  Solving for Uy, Initial residual = 0.356063, Final residual = 0.0193977, No Iterations 2
smoothSolver:  Solving for Uz, Initial residual = 0.269736, Final residual = 0.0124705, No Iterations 3
GAMG:  Solving for p, Initial residual = 0.00190979, Final residual = 9.67363e-06, No Iterations 4
time step continuity errors : sum local = 0.0636632, global = 0.0180689, cumulative = 0.0180689
smoothSolver:  Solving for omega, Initial residual = 0.0124326, Final residual = 0.00119608, No Iterations 2
smoothSolver:  Solving for k, Initial residual = 1, Final residual = 0.0774831, No Iterations 2
ExecutionTime = 0.76 s  ClockTime = 1 s

Time = 2

smoothSolver:  Solving for Ux, Initial residual = 0.239141, Final residual = 0.00913939, No Iterations 2
smoothSolver:  Solving for Uy, Initial residual = 0.239195, Final residual = 0.00911803, No Iterations 2
smoothSolver:  Solving for Uz, Initial residual = 0.178382, Final residual = 0.0167327, No Iterations 2
GAMG:  Solving for p, Initial residual = 0.0607383, Final residual = 0.000236198, No Iterations 4
time step continuity errors : sum local = 0.0650246, global = 0.00251435, cumulative = 0.0205833
smoothSolver:  Solving for omega, Initial residual = 0.0103746, Final residual = 0.00092851, No Iterations 2
smoothSolver:  Solving for k, Initial residual = 0.412975, Final residual = 0.0263788, No Iterations 2
ExecutionTime = 1.04 s  ClockTime = 1 s

Time = 3

smoothSolver:  Solving for Ux, Initial residual = 0.182993, Final residual = 0.00551279, No Iterations 2
smoothSolver:  Solving for Uy, Initial residual = 0.18308, Final residual = 0.00551602, No Iterations 2
smoothSolver:  Solving for Uz, Initial residual = 0.142349, Final residual = 0.0111668, No Iterations 2
GAMG:  Solving for p, Initial residual = 0.103509, Final residual = 0.000891028, No Iterations 3
time step continuity errors : sum local = 0.161768, global = 0.0851413, cumulative = 0.105725
smoothSolver:  Solving for omega, Initial residual = 0.00868718, Final residual = 0.000770061, No Iterations 2
smoothSolver:  Solving for k, Initial residual = 0.270337, Final residual = 0.0145394, No Iterations 2
ExecutionTime = 1.32 s  ClockTime = 2 s

Time = 4

smoothSolver:  Solving for Ux, Initial residual = 0.165429, Final residual = 0.00410021, No Iterations 2
smoothSolver:  Solving for Uy, Initial residual = 0.165392, Final residual = 0.00411717, No Iterations 2
smoothSolver:  Solving for Uz, Initial residual = 0.108887, Final residual = 0.00814018, No Iterations 2
GAMG:  Solving for p, Initial residual = 0.136034, Final residual = 0.000877056, No Iterations 3
time step continuity errors : sum local = 0.13303, global = 0.0660232, cumulative = 0.171748
smoothSolver:  Solving for omega, Initial residual = 0.00696356, Final residual = 0.000627932, No Iterations 2
smoothSolver:  Solving for k, Initial residual = 0.193042, Final residual = 0.00913822, No Iterations 2
ExecutionTime = 1.61 s  ClockTime = 2 s

Time = 5

smoothSolver:  Solving for Ux, Initial residual = 0.148632, Final residual = 0.00327281, No Iterations 2
smoothSolver:  Solving for Uy, Initial residual = 0.148488, Final residual = 0.0032846, No Iterations 2
smoothSolver:  Solving for Uz, Initial residual = 0.0911353, Final residual = 0.0061454, No Iterations 2
GAMG:  Solving for p, Initial residual = 0.169107, Final residual = 0.000915194, No Iterations 3
time step continuity errors : sum local = 0.118097, global = 0.0465188, cumulative = 0.218267
smoothSolver:  Solving for omega, Initial residual = 0.00567105, Final residual = 0.000526271, No Iterations 2
smoothSolver:  Solving for k, Initial residual = 0.140278, Final residual = 0.00614525, No Iterations 2
ExecutionTime = 1.87 s  ClockTime = 2 s

Time = 6

smoothSolver:  Solving for Ux, Initial residual = 0.125558, Final residual = 0.00263107, No Iterations 2
smoothSolver:  Solving for Uy, Initial residual = 0.125332, Final residual = 0.00263732, No Iterations 2
smoothSolver:  Solving for Uz, Initial residual = 0.0799509, Final residual = 0.00490931, No Iterations 2
GAMG:  Solving for p, Initial residual = 0.203392, Final residual = 0.000874585, No Iterations 3
time step continuity errors : sum local = 0.0985165, global = 0.0219265, cumulative = 0.240193
smoothSolver:  Solving for omega, Initial residual = 0.00465339, Final residual = 0.00044627, No Iterations 2
smoothSolver:  Solving for k, Initial residual = 0.108077, Final residual = 0.00434008, No Iterations 2
ExecutionTime = 2.13 s  ClockTime = 3 s

Time = 7

smoothSolver:  Solving for Ux, Initial residual = 0.110227, Final residual = 0.0105437, No Iterations 1
smoothSolver:  Solving for Uy, Initial residual = 0.110001, Final residual = 0.0105369, No Iterations 1
smoothSolver:  Solving for Uz, Initial residual = 0.0724123, Final residual = 0.00409954, No Iterations 2
GAMG:  Solving for p, Initial residual = 0.231052, Final residual = 0.00095137, No Iterations 3
time step continuity errors : sum local = 0.0969, global = 0.00743524, cumulative = 0.247628
smoothSolver:  Solving for omega, Initial residual = 0.00392864, Final residual = 0.000379751, No Iterations 2
smoothSolver:  Solving for k, Initial residual = 0.0915662, Final residual = 0.00313831, No Iterations 2
ExecutionTime = 2.43 s  ClockTime = 3 s

Time = 8

smoothSolver:  Solving for Ux, Initial residual = 0.0985344, Final residual = 0.00917245, No Iterations 1
smoothSolver:  Solving for Uy, Initial residual = 0.0983941, Final residual = 0.00917082, No Iterations 1
smoothSolver:  Solving for Uz, Initial residual = 0.0663884, Final residual = 0.00353933, No Iterations 2
GAMG:  Solving for p, Initial residual = 0.249889, Final residual = 0.00111539, No Iterations 3
time step continuity errors : sum local = 0.106638, global = 0.0086238, cumulative = 0.256252
smoothSolver:  Solving for omega, Initial residual = 0.00359241, Final residual = 0.000327911, No Iterations 2
smoothSolver:  Solving for k, Initial residual = 0.0876275, Final residual = 0.00237021, No Iterations 2
ExecutionTime = 2.73 s  ClockTime = 3 s

Time = 9

smoothSolver:  Solving for Ux, Initial residual = 0.0912063, Final residual = 0.00823505, No Iterations 1
smoothSolver:  Solving for Uy, Initial residual = 0.0911909, Final residual = 0.00824272, No Iterations 1
smoothSolver:  Solving for Uz, Initial residual = 0.0614055, Final residual = 0.00311805, No Iterations 2
GAMG:  Solving for p, Initial residual = 0.264058, Final residual = 0.0010231, No Iterations 3
time step continuity errors : sum local = 0.093353, global = 0.0160207, cumulative = 0.272273
smoothSolver:  Solving for omega, Initial residual = 0.00345495, Final residual = 0.000297515, No Iterations 2
smoothSolver:  Solving for k, Initial residual = 0.0922721, Final residual = 0.00207928, No Iterations 2
ExecutionTime = 3.02 s  ClockTime = 3 s

Time = 10

smoothSolver:  Solving for Ux, Initial residual = 0.0871647, Final residual = 0.00757613, No Iterations 1
smoothSolver:  Solving for Uy, Initial residual = 0.0872152, Final residual = 0.00758753, No Iterations 1
smoothSolver:  Solving for Uz, Initial residual = 0.0576148, Final residual = 0.00278358, No Iterations 2
GAMG:  Solving for p, Initial residual = 0.269861, Final residual = 0.0010002, No Iterations 3
time step continuity errors : sum local = 0.0901733, global = 0.02558, cumulative = 0.297853
smoothSolver:  Solving for omega, Initial residual = 0.00336734, Final residual = 0.000274409, No Iterations 2
smoothSolver:  Solving for k, Initial residual = 0.0994325, Final residual = 0.00205025, No Iterations 2
ExecutionTime = 3.27 s  ClockTime = 4 s

Time = 11

smoothSolver:  Solving for Ux, Initial residual = 0.0837915, Final residual = 0.0070577, No Iterations 1
smoothSolver:  Solving for Uy, Initial residual = 0.0839117, Final residual = 0.00706953, No Iterations 1
smoothSolver:  Solving for Uz, Initial residual = 0.0542593, Final residual = 0.00250819, No Iterations 2
GAMG:  Solving for p, Initial residual = 0.24416, Final residual = 0.000940921, No Iterations 3
time step continuity errors : sum local = 0.09538, global = 0.0340152, cumulative = 0.331868
smoothSolver:  Solving for omega, Initial residual = 0.00324428, Final residual = 0.000251572, No Iterations 2
smoothSolver:  Solving for k, Initial residual = 0.105308, Final residual = 0.00200245, No Iterations 2
ExecutionTime = 3.53 s  ClockTime = 4 s

Time = 12

smoothSolver:  Solving for Ux, Initial residual = 0.0806704, Final residual = 0.00661759, No Iterations 1
smoothSolver:  Solving for Uy, Initial residual = 0.0808291, Final residual = 0.00663468, No Iterations 1
smoothSolver:  Solving for Uz, Initial residual = 0.050861, Final residual = 0.00226856, No Iterations 2
GAMG:  Solving for p, Initial residual = 0.223563, Final residual = 0.000925462, No Iterations 3
time step continuity errors : sum local = 0.104729, global = 0.0400946, cumulative = 0.371963
smoothSolver:  Solving for omega, Initial residual = 0.00314326, Final residual = 0.000238313, No Iterations 2
smoothSolver:  Solving for k, Initial residual = 0.110516, Final residual = 0.0021647, No Iterations 2
ExecutionTime = 3.79 s  ClockTime = 4 s

Time = 13

smoothSolver:  Solving for Ux, Initial residual = 0.0776111, Final residual = 0.00620673, No Iterations 1
smoothSolver:  Solving for Uy, Initial residual = 0.0777865, Final residual = 0.00622719, No Iterations 1
smoothSolver:  Solving for Uz, Initial residual = 0.0476052, Final residual = 0.00205556, No Iterations 2
GAMG:  Solving for p, Initial residual = 0.212327, Final residual = 0.000997007, No Iterations 3
time step continuity errors : sum local = 0.120835, global = 0.0426177, cumulative = 0.41458
smoothSolver:  Solving for omega, Initial residual = 0.003054, Final residual = 0.000229828, No Iterations 2
smoothSolver:  Solving for k, Initial residual = 0.11323, Final residual = 0.00240187, No Iterations 2
ExecutionTime = 4.14 s  ClockTime = 5 s

Time = 14

smoothSolver:  Solving for Ux, Initial residual = 0.0742138, Final residual = 0.00583674, No Iterations 1
smoothSolver:  Solving for Uy, Initial residual = 0.0743737, Final residual = 0.00585941, No Iterations 1
smoothSolver:  Solving for Uz, Initial residual = 0.0449494, Final residual = 0.00186353, No Iterations 2
GAMG:  Solving for p, Initial residual = 0.205931, Final residual = 0.00107711, No Iterations 3
time step continuity errors : sum local = 0.136105, global = 0.0424432, cumulative = 0.457024
smoothSolver:  Solving for omega, Initial residual = 0.00295715, Final residual = 0.000223133, No Iterations 2
smoothSolver:  Solving for k, Initial residual = 0.114571, Final residual = 0.00275824, No Iterations 2
ExecutionTime = 4.52 s  ClockTime = 5 s

Time = 15

smoothSolver:  Solving for Ux, Initial residual = 0.0707348, Final residual = 0.00547497, No Iterations 1
smoothSolver:  Solving for Uy, Initial residual = 0.0708652, Final residual = 0.00549785, No Iterations 1
smoothSolver:  Solving for Uz, Initial residual = 0.0428482, Final residual = 0.00170067, No Iterations 2
GAMG:  Solving for p, Initial residual = 0.202965, Final residual = 0.00109978, No Iterations 3
time step continuity errors : sum local = 0.141429, global = 0.0357229, cumulative = 0.492746
smoothSolver:  Solving for omega, Initial residual = 0.00286186, Final residual = 0.000217069, No Iterations 2
smoothSolver:  Solving for k, Initial residual = 0.114544, Final residual = 0.00317252, No Iterations 2
ExecutionTime = 4.81 s  ClockTime = 5 s

Time = 16

smoothSolver:  Solving for Ux, Initial residual = 0.0673562, Final residual = 0.00511984, No Iterations 1
smoothSolver:  Solving for Uy, Initial residual = 0.0674664, Final residual = 0.005141, No Iterations 1
smoothSolver:  Solving for Uz, Initial residual = 0.0409554, Final residual = 0.00157439, No Iterations 2
GAMG:  Solving for p, Initial residual = 0.2014, Final residual = 0.00102043, No Iterations 3
time step continuity errors : sum local = 0.131708, global = 0.0250185, cumulative = 0.517765
smoothSolver:  Solving for omega, Initial residual = 0.00276974, Final residual = 0.000209811, No Iterations 2
smoothSolver:  Solving for k, Initial residual = 0.114532, Final residual = 0.0035791, No Iterations 2
ExecutionTime = 5.07 s  ClockTime = 5 s

Time = 17

smoothSolver:  Solving for Ux, Initial residual = 0.0644467, Final residual = 0.00480655, No Iterations 1
smoothSolver:  Solving for Uy, Initial residual = 0.0645435, Final residual = 0.0048261, No Iterations 1
smoothSolver:  Solving for Uz, Initial residual = 0.0393232, Final residual = 0.0014775, No Iterations 2
GAMG:  Solving for p, Initial residual = 0.200594, Final residual = 0.000884823, No Iterations 3
time step continuity errors : sum local = 0.113506, global = 0.00964801, cumulative = 0.527413
smoothSolver:  Solving for omega, Initial residual = 0.00271811, Final residual = 0.000208413, No Iterations 2
smoothSolver:  Solving for k, Initial residual = 0.116389, Final residual = 0.00400377, No Iterations 2
ExecutionTime = 5.33 s  ClockTime = 6 s

Time = 18

smoothSolver:  Solving for Ux, Initial residual = 0.0621587, Final residual = 0.00458916, No Iterations 1
smoothSolver:  Solving for Uy, Initial residual = 0.0622559, Final residual = 0.00460677, No Iterations 1
smoothSolver:  Solving for Uz, Initial residual = 0.0376299, Final residual = 0.00139608, No Iterations 2
GAMG:  Solving for p, Initial residual = 0.200335, Final residual = 0.000775279, No Iterations 3
time step continuity errors : sum local = 0.098167, global = -0.00550661, cumulative = 0.521906
smoothSolver:  Solving for omega, Initial residual = 0.00268783, Final residual = 0.000212845, No Iterations 2
smoothSolver:  Solving for k, Initial residual = 0.119999, Final residual = 0.00480394, No Iterations 2
ExecutionTime = 5.6 s  ClockTime = 6 s

Time = 19

smoothSolver:  Solving for Ux, Initial residual = 0.0604657, Final residual = 0.00444969, No Iterations 1
smoothSolver:  Solving for Uy, Initial residual = 0.0605675, Final residual = 0.00446671, No Iterations 1
smoothSolver:  Solving for Uz, Initial residual = 0.0358357, Final residual = 0.00133192, No Iterations 2
GAMG:  Solving for p, Initial residual = 0.200324, Final residual = 0.000739349, No Iterations 3
time step continuity errors : sum local = 0.0921055, global = -0.0145069, cumulative = 0.507399
smoothSolver:  Solving for omega, Initial residual = 0.00268993, Final residual = 0.000222536, No Iterations 2
smoothSolver:  Solving for k, Initial residual = 0.123997, Final residual = 0.00566749, No Iterations 2
ExecutionTime = 5.87 s  ClockTime = 6 s

Time = 20

smoothSolver:  Solving for Ux, Initial residual = 0.0593654, Final residual = 0.00438992, No Iterations 1
smoothSolver:  Solving for Uy, Initial residual = 0.0594681, Final residual = 0.00440449, No Iterations 1
smoothSolver:  Solving for Uz, Initial residual = 0.0339402, Final residual = 0.00127968, No Iterations 2
GAMG:  Solving for p, Initial residual = 0.199354, Final residual = 0.000745733, No Iterations 3
time step continuity errors : sum local = 0.0914111, global = -0.0180751, cumulative = 0.489324
smoothSolver:  Solving for omega, Initial residual = 0.00270542, Final residual = 0.000232836, No Iterations 2
smoothSolver:  Solving for k, Initial residual = 0.125166, Final residual = 0.00652532, No Iterations 2
ExecutionTime = 6.15 s  ClockTime = 7 s

Time = 21

smoothSolver:  Solving for Ux, Initial residual = 0.0585799, Final residual = 0.00439864, No Iterations 1
smoothSolver:  Solving for Uy, Initial residual = 0.0586927, Final residual = 0.00441543, No Iterations 1
smoothSolver:  Solving for Uz, Initial residual = 0.0319966, Final residual = 0.00124365, No Iterations 2
GAMG:  Solving for p, Initial residual = 0.196814, Final residual = 0.00074601, No Iterations 3
time step continuity errors : sum local = 0.090206, global = -0.0201303, cumulative = 0.469194
smoothSolver:  Solving for omega, Initial residual = 0.00267454, Final residual = 0.00024098, No Iterations 2
smoothSolver:  Solving for k, Initial residual = 0.125535, Final residual = 0.00733617, No Iterations 2
ExecutionTime = 6.41 s  ClockTime = 7 s

Time = 22

smoothSolver:  Solving for Ux, Initial residual = 0.0579633, Final residual = 0.00446071, No Iterations 1
smoothSolver:  Solving for Uy, Initial residual = 0.0580781, Final residual = 0.00448103, No Iterations 1
smoothSolver:  Solving for Uz, Initial residual = 0.0301393, Final residual = 0.00121856, No Iterations 2
GAMG:  Solving for p, Initial residual = 0.192059, Final residual = 0.000675777, No Iterations 3
time step continuity errors : sum local = 0.0810245, global = -0.0238974, cumulative = 0.445297
smoothSolver:  Solving for omega, Initial residual = 0.00263583, Final residual = 0.000246165, No Iterations 2
smoothSolver:  Solving for k, Initial residual = 0.120834, Final residual = 0.0076886, No Iterations 2
ExecutionTime = 6.69 s  ClockTime = 7 s

Time = 23

smoothSolver:  Solving for Ux, Initial residual = 0.0574917, Final residual = 0.00454513, No Iterations 1
smoothSolver:  Solving for Uy, Initial residual = 0.0575934, Final residual = 0.00456979, No Iterations 1
smoothSolver:  Solving for Uz, Initial residual = 0.0283144, Final residual = 0.00121107, No Iterations 2
GAMG:  Solving for p, Initial residual = 0.186338, Final residual = 0.000566957, No Iterations 3
time step continuity errors : sum local = 0.0675762, global = -0.0312042, cumulative = 0.414092
smoothSolver:  Solving for omega, Initial residual = 0.00253651, Final residual = 0.000238865, No Iterations 2
smoothSolver:  Solving for k, Initial residual = 0.115943, Final residual = 0.00785044, No Iterations 2
ExecutionTime = 6.98 s  ClockTime = 7 s

Time = 24

smoothSolver:  Solving for Ux, Initial residual = 0.0570365, Final residual = 0.00457694, No Iterations 1
smoothSolver:  Solving for Uy, Initial residual = 0.0571164, Final residual = 0.0046074, No Iterations 1
smoothSolver:  Solving for Uz, Initial residual = 0.0267254, Final residual = 0.00117494, No Iterations 2
GAMG:  Solving for p, Initial residual = 0.17982, Final residual = 0.00159209, No Iterations 2
time step continuity errors : sum local = 0.187812, global = -0.0746825, cumulative = 0.33941
smoothSolver:  Solving for omega, Initial residual = 0.0024275, Final residual = 0.000232301, No Iterations 2
smoothSolver:  Solving for k, Initial residual = 0.10733, Final residual = 0.00759854, No Iterations 2
ExecutionTime = 7.26 s  ClockTime = 8 s

Time = 25

smoothSolver:  Solving for Ux, Initial residual = 0.0564859, Final residual = 0.00459381, No Iterations 1
smoothSolver:  Solving for Uy, Initial residual = 0.0564283, Final residual = 0.00460543, No Iterations 1
smoothSolver:  Solving for Uz, Initial residual = 0.0249883, Final residual = 0.00114032, No Iterations 2
GAMG:  Solving for p, Initial residual = 0.17255, Final residual = 0.00145375, No Iterations 2
time step continuity errors : sum local = 0.169796, global = -0.0616408, cumulative = 0.277769
smoothSolver:  Solving for omega, Initial residual = 0.00227552, Final residual = 0.000218172, No Iterations 2
smoothSolver:  Solving for k, Initial residual = 0.0989526, Final residual = 0.00747213, No Iterations 2
ExecutionTime = 7.53 s  ClockTime = 8 s

Time = 26

smoothSolver:  Solving for Ux, Initial residual = 0.056418, Final residual = 0.00462283, No Iterations 1
smoothSolver:  Solving for Uy, Initial residual = 0.0562815, Final residual = 0.00462452, No Iterations 1
smoothSolver:  Solving for Uz, Initial residual = 0.0234919, Final residual = 0.00109908, No Iterations 2
GAMG:  Solving for p, Initial residual = 0.164551, Final residual = 0.00136264, No Iterations 2
time step continuity errors : sum local = 0.157186, global = -0.0416902, cumulative = 0.236079
smoothSolver:  Solving for omega, Initial residual = 0.00213082, Final residual = 0.000205355, No Iterations 2
smoothSolver:  Solving for k, Initial residual = 0.0897505, Final residual = 0.00682327, No Iterations 2
ExecutionTime = 7.79 s  ClockTime = 8 s

Time = 27

smoothSolver:  Solving for Ux, Initial residual = 0.0569163, Final residual = 0.00465243, No Iterations 1
smoothSolver:  Solving for Uy, Initial residual = 0.0567503, Final residual = 0.00465538, No Iterations 1
smoothSolver:  Solving for Uz, Initial residual = 0.0220499, Final residual = 0.00103535, No Iterations 2
GAMG:  Solving for p, Initial residual = 0.156476, Final residual = 0.00131536, No Iterations 2
time step continuity errors : sum local = 0.149508, global = -0.0261242, cumulative = 0.209955
smoothSolver:  Solving for omega, Initial residual = 0.00202814, Final residual = 0.000193148, No Iterations 2
smoothSolver:  Solving for k, Initial residual = 0.0810883, Final residual = 0.00631216, No Iterations 2
ExecutionTime = 8.09 s  ClockTime = 8 s

Time = 28

smoothSolver:  Solving for Ux, Initial residual = 0.058043, Final residual = 0.00473058, No Iterations 1
smoothSolver:  Solving for Uy, Initial residual = 0.057926, Final residual = 0.00474354, No Iterations 1
smoothSolver:  Solving for Uz, Initial residual = 0.0206506, Final residual = 0.000966028, No Iterations 2
GAMG:  Solving for p, Initial residual = 0.148293, Final residual = 0.00126432, No Iterations 2
time step continuity errors : sum local = 0.141367, global = -0.0167992, cumulative = 0.193156
smoothSolver:  Solving for omega, Initial residual = 0.00195148, Final residual = 0.00017795, No Iterations 2
smoothSolver:  Solving for k, Initial residual = 0.0758681, Final residual = 0.00551891, No Iterations 2
ExecutionTime = 8.43 s  ClockTime = 9 s

Time = 29

smoothSolver:  Solving for Ux, Initial residual = 0.0600289, Final residual = 0.00488174, No Iterations 1
smoothSolver:  Solving for Uy, Initial residual = 0.0599721, Final residual = 0.00489649, No Iterations 1
smoothSolver:  Solving for Uz, Initial residual = 0.0191852, Final residual = 0.000865348, No Iterations 2
GAMG:  Solving for p, Initial residual = 0.140621, Final residual = 0.00122111, No Iterations 2
time step continuity errors : sum local = 0.134083, global = -0.0173547, cumulative = 0.175801
smoothSolver:  Solving for omega, Initial residual = 0.00186816, Final residual = 0.000165058, No Iterations 2
smoothSolver:  Solving for k, Initial residual = 0.0723854, Final residual = 0.00453312, No Iterations 2
ExecutionTime = 8.77 s  ClockTime = 9 s

Time = 30

smoothSolver:  Solving for Ux, Initial residual = 0.0630375, Final residual = 0.00522887, No Iterations 1
smoothSolver:  Solving for Uy, Initial residual = 0.0631292, Final residual = 0.00522725, No Iterations 1
smoothSolver:  Solving for Uz, Initial residual = 0.0176286, Final residual = 0.000762363, No Iterations 2
GAMG:  Solving for p, Initial residual = 0.134333, Final residual = 0.00118579, No Iterations 2
time step continuity errors : sum local = 0.127545, global = -0.0263617, cumulative = 0.149439
smoothSolver:  Solving for omega, Initial residual = 0.00176377, Final residual = 0.000153956, No Iterations 2
smoothSolver:  Solving for k, Initial residual = 0.0702558, Final residual = 0.00367306, No Iterations 2
ExecutionTime = 9.01 s  ClockTime = 9 s

Time = 31

smoothSolver:  Solving for Ux, Initial residual = 0.0664837, Final residual = 0.00564299, No Iterations 1
smoothSolver:  Solving for Uy, Initial residual = 0.0667922, Final residual = 0.00565677, No Iterations 1
smoothSolver:  Solving for Uz, Initial residual = 0.0161424, Final residual = 0.000645006, No Iterations 2
GAMG:  Solving for p, Initial residual = 0.130255, Final residual = 0.00114242, No Iterations 2
time step continuity errors : sum local = 0.120182, global = -0.0380683, cumulative = 0.111371
smoothSolver:  Solving for omega, Initial residual = 0.00163627, Final residual = 0.000142099, No Iterations 2
smoothSolver:  Solving for k, Initial residual = 0.0658241, Final residual = 0.00303985, No Iterations 2
ExecutionTime = 9.26 s  ClockTime = 10 s

Time = 32

smoothSolver:  Solving for Ux, Initial residual = 0.069665, Final residual = 0.00598472, No Iterations 1
smoothSolver:  Solving for Uy, Initial residual = 0.0700731, Final residual = 0.00600816, No Iterations 1
smoothSolver:  Solving for Uz, Initial residual = 0.0146592, Final residual = 0.000509595, No Iterations 2
GAMG:  Solving for p, Initial residual = 0.128645, Final residual = 0.00112875, No Iterations 2
time step continuity errors : sum local = 0.115947, global = -0.0483911, cumulative = 0.0629798
smoothSolver:  Solving for omega, Initial residual = 0.00161795, Final residual = 0.000161119, No Iterations 2
smoothSolver:  Solving for k, Initial residual = 0.0595106, Final residual = 0.00254969, No Iterations 2
ExecutionTime = 9.5 s  ClockTime = 10 s

Time = 33

smoothSolver:  Solving for Ux, Initial residual = 0.0747685, Final residual = 0.0068673, No Iterations 1
smoothSolver:  Solving for Uy, Initial residual = 0.0734866, Final residual = 0.00685281, No Iterations 1
smoothSolver:  Solving for Uz, Initial residual = 0.0167089, Final residual = 0.00118318, No Iterations 2
GAMG:  Solving for p, Initial residual = 0.127591, Final residual = 0.000415192, No Iterations 3
time step continuity errors : sum local = 0.0414701, global = -0.0205191, cumulative = 0.0424607
smoothSolver:  Solving for omega, Initial residual = 0.00160325, Final residual = 7.00735e-05, No Iterations 3
smoothSolver:  Solving for k, Initial residual = 0.0528025, Final residual = 0.00196745, No Iterations 2
ExecutionTime = 9.78 s  ClockTime = 10 s

Time = 34

smoothSolver:  Solving for Ux, Initial residual = 0.0740857, Final residual = 0.00189009, No Iterations 2
smoothSolver:  Solving for Uy, Initial residual = 0.0746281, Final residual = 0.00198123, No Iterations 2
smoothSolver:  Solving for Uz, Initial residual = 0.0192057, Final residual = 0.000876025, No Iterations 3
GAMG:  Solving for p, Initial residual = 0.124742, Final residual = 0.000659735, No Iterations 3
time step continuity errors : sum local = 0.0646364, global = -0.0421098, cumulative = 0.000350959
smoothSolver:  Solving for omega, Initial residual = 0.00137032, Final residual = 6.38433e-05, No Iterations 3
smoothSolver:  Solving for k, Initial residual = 0.0471471, Final residual = 0.00120321, No Iterations 2
ExecutionTime = 10.05 s  ClockTime = 10 s

Time = 35

smoothSolver:  Solving for Ux, Initial residual = 0.069424, Final residual = 0.00171206, No Iterations 2
smoothSolver:  Solving for Uy, Initial residual = 0.0696463, Final residual = 0.00163111, No Iterations 2
smoothSolver:  Solving for Uz, Initial residual = 0.0168577, Final residual = 0.00148802, No Iterations 2
GAMG:  Solving for p, Initial residual = 0.112263, Final residual = 0.00053935, No Iterations 3
time step continuity errors : sum local = 0.0562781, global = -0.0298572, cumulative = -0.0295062
smoothSolver:  Solving for omega, Initial residual = 0.00120507, Final residual = 6.40479e-05, No Iterations 3
smoothSolver:  Solving for k, Initial residual = 0.0363207, Final residual = 0.000646452, No Iterations 2
ExecutionTime = 10.32 s  ClockTime = 11 s

Time = 36

smoothSolver:  Solving for Ux, Initial residual = 0.0631874, Final residual = 0.00212986, No Iterations 2
smoothSolver:  Solving for Uy, Initial residual = 0.0637845, Final residual = 0.0021077, No Iterations 2
smoothSolver:  Solving for Uz, Initial residual = 0.0151021, Final residual = 0.000732776, No Iterations 3
GAMG:  Solving for p, Initial residual = 0.101065, Final residual = 0.000540062, No Iterations 3
time step continuity errors : sum local = 0.0588299, global = -0.0254327, cumulative = -0.054939
smoothSolver:  Solving for omega, Initial residual = 0.00113118, Final residual = 6.94247e-05, No Iterations 3
smoothSolver:  Solving for k, Initial residual = 0.0244256, Final residual = 0.00221885, No Iterations 1
ExecutionTime = 10.64 s  ClockTime = 11 s

Time = 37

smoothSolver:  Solving for Ux, Initial residual = 0.0582732, Final residual = 0.00245387, No Iterations 2
smoothSolver:  Solving for Uy, Initial residual = 0.0586444, Final residual = 0.00239324, No Iterations 2
smoothSolver:  Solving for Uz, Initial residual = 0.0141799, Final residual = 0.00089614, No Iterations 3
GAMG:  Solving for p, Initial residual = 0.0935969, Final residual = 0.000524733, No Iterations 3
time step continuity errors : sum local = 0.0569708, global = -0.0239757, cumulative = -0.0789146
smoothSolver:  Solving for omega, Initial residual = 0.00112833, Final residual = 6.34742e-05, No Iterations 3
smoothSolver:  Solving for k, Initial residual = 0.0169221, Final residual = 0.00159299, No Iterations 1
ExecutionTime = 10.92 s  ClockTime = 11 s

Time = 38

smoothSolver:  Solving for Ux, Initial residual = 0.0547999, Final residual = 0.00268154, No Iterations 2
smoothSolver:  Solving for Uy, Initial residual = 0.0552157, Final residual = 0.00274219, No Iterations 2
smoothSolver:  Solving for Uz, Initial residual = 0.014031, Final residual = 0.000724279, No Iterations 3
GAMG:  Solving for p, Initial residual = 0.0890135, Final residual = 0.000538967, No Iterations 3
time step continuity errors : sum local = 0.056841, global = -0.0202654, cumulative = -0.0991801
smoothSolver:  Solving for omega, Initial residual = 0.001141, Final residual = 5.82511e-05, No Iterations 3
smoothSolver:  Solving for k, Initial residual = 0.0126503, Final residual = 0.00039291, No Iterations 2
ExecutionTime = 11.22 s  ClockTime = 12 s

Time = 39

smoothSolver:  Solving for Ux, Initial residual = 0.0550533, Final residual = 0.00312318, No Iterations 2
smoothSolver:  Solving for Uy, Initial residual = 0.0551531, Final residual = 0.00316431, No Iterations 2
smoothSolver:  Solving for Uz, Initial residual = 0.0140012, Final residual = 0.000714771, No Iterations 3
GAMG:  Solving for p, Initial residual = 0.086009, Final residual = 0.000542653, No Iterations 3
time step continuity errors : sum local = 0.0552741, global = -0.0188796, cumulative = -0.11806
smoothSolver:  Solving for omega, Initial residual = 0.00121201, Final residual = 5.17475e-05, No Iterations 3
smoothSolver:  Solving for k, Initial residual = 0.0104242, Final residual = 0.000386057, No Iterations 2
ExecutionTime = 11.52 s  ClockTime = 12 s

Time = 40

smoothSolver:  Solving for Ux, Initial residual = 0.0564034, Final residual = 0.00280769, No Iterations 2
smoothSolver:  Solving for Uy, Initial residual = 0.0562869, Final residual = 0.00284957, No Iterations 2
smoothSolver:  Solving for Uz, Initial residual = 0.0133865, Final residual = 0.00128111, No Iterations 2
GAMG:  Solving for p, Initial residual = 0.0840952, Final residual = 0.000487102, No Iterations 3
time step continuity errors : sum local = 0.0476087, global = -0.0183442, cumulative = -0.136404
smoothSolver:  Solving for omega, Initial residual = 0.00122922, Final residual = 0.000107915, No Iterations 2
smoothSolver:  Solving for k, Initial residual = 0.00960476, Final residual = 0.000377334, No Iterations 2
ExecutionTime = 11.82 s  ClockTime = 12 s

Time = 41

smoothSolver:  Solving for Ux, Initial residual = 0.0558064, Final residual = 0.00203468, No Iterations 2
smoothSolver:  Solving for Uy, Initial residual = 0.0559526, Final residual = 0.0020566, No Iterations 2
smoothSolver:  Solving for Uz, Initial residual = 0.0131781, Final residual = 0.00105101, No Iterations 2
GAMG:  Solving for p, Initial residual = 0.0833186, Final residual = 0.000439891, No Iterations 3
time step continuity errors : sum local = 0.0408382, global = -0.0170355, cumulative = -0.153439
smoothSolver:  Solving for omega, Initial residual = 0.00119498, Final residual = 9.41819e-05, No Iterations 2
smoothSolver:  Solving for k, Initial residual = 0.00931705, Final residual = 0.000373362, No Iterations 2
ExecutionTime = 12.12 s  ClockTime = 13 s

Time = 42

smoothSolver:  Solving for Ux, Initial residual = 0.0544064, Final residual = 0.00520825, No Iterations 1
smoothSolver:  Solving for Uy, Initial residual = 0.054828, Final residual = 0.00542893, No Iterations 1
smoothSolver:  Solving for Uz, Initial residual = 0.0122397, Final residual = 0.000720962, No Iterations 2
GAMG:  Solving for p, Initial residual = 0.0836566, Final residual = 0.000468681, No Iterations 3
time step continuity errors : sum local = 0.04102, global = -0.0146671, cumulative = -0.168106
smoothSolver:  Solving for omega, Initial residual = 0.00117007, Final residual = 8.63584e-05, No Iterations 2
smoothSolver:  Solving for k, Initial residual = 0.00877996, Final residual = 0.000361226, No Iterations 2
ExecutionTime = 12.4 s  ClockTime = 13 s

Time = 43

smoothSolver:  Solving for Ux, Initial residual = 0.0535585, Final residual = 0.00477935, No Iterations 1
smoothSolver:  Solving for Uy, Initial residual = 0.0539426, Final residual = 0.00504725, No Iterations 1
smoothSolver:  Solving for Uz, Initial residual = 0.011431, Final residual = 0.000440174, No Iterations 2
GAMG:  Solving for p, Initial residual = 0.0843314, Final residual = 0.000488849, No Iterations 3
time step continuity errors : sum local = 0.0403315, global = -0.0120339, cumulative = -0.18014
smoothSolver:  Solving for omega, Initial residual = 0.00115767, Final residual = 8.31826e-05, No Iterations 2
smoothSolver:  Solving for k, Initial residual = 0.00764036, Final residual = 0.000325649, No Iterations 2
ExecutionTime = 12.71 s  ClockTime = 13 s

Time = 44

smoothSolver:  Solving for Ux, Initial residual = 0.0534636, Final residual = 0.00484671, No Iterations 1
smoothSolver:  Solving for Uy, Initial residual = 0.0539332, Final residual = 0.00505388, No Iterations 1
smoothSolver:  Solving for Uz, Initial residual = 0.0104438, Final residual = 0.00029326, No Iterations 2
GAMG:  Solving for p, Initial residual = 0.0848464, Final residual = 0.000459422, No Iterations 3
time step continuity errors : sum local = 0.0357428, global = -0.00904655, cumulative = -0.189187
smoothSolver:  Solving for omega, Initial residual = 0.00110073, Final residual = 7.49358e-05, No Iterations 2
smoothSolver:  Solving for k, Initial residual = 0.00610828, Final residual = 0.000271436, No Iterations 2
ExecutionTime = 13.07 s  ClockTime = 13 s

Time = 45

smoothSolver:  Solving for Ux, Initial residual = 0.0551902, Final residual = 0.00487621, No Iterations 1
smoothSolver:  Solving for Uy, Initial residual = 0.0555636, Final residual = 0.00502245, No Iterations 1
smoothSolver:  Solving for Uz, Initial residual = 0.00954767, Final residual = 0.0002534, No Iterations 2
GAMG:  Solving for p, Initial residual = 0.08505, Final residual = 0.000391415, No Iterations 3
time step continuity errors : sum local = 0.0287439, global = -0.00653973, cumulative = -0.195727
smoothSolver:  Solving for omega, Initial residual = 0.00104704, Final residual = 7.46242e-05, No Iterations 2
smoothSolver:  Solving for k, Initial residual = 0.00481515, Final residual = 0.000252411, No Iterations 2
ExecutionTime = 13.35 s  ClockTime = 14 s

Time = 46

smoothSolver:  Solving for Ux, Initial residual = 0.0580066, Final residual = 0.00492567, No Iterations 1
smoothSolver:  Solving for Uy, Initial residual = 0.0582898, Final residual = 0.00512823, No Iterations 1
smoothSolver:  Solving for Uz, Initial residual = 0.00856383, Final residual = 0.00073967, No Iterations 1
GAMG:  Solving for p, Initial residual = 0.0853573, Final residual = 0.000318563, No Iterations 3
time step continuity errors : sum local = 0.0220436, global = -0.00473735, cumulative = -0.200464
smoothSolver:  Solving for omega, Initial residual = 0.000951608, Final residual = 7.10018e-05, No Iterations 2
smoothSolver:  Solving for k, Initial residual = 0.00398025, Final residual = 0.000242709, No Iterations 2
ExecutionTime = 13.65 s  ClockTime = 14 s

Time = 47

smoothSolver:  Solving for Ux, Initial residual = 0.0609465, Final residual = 0.00469231, No Iterations 1
smoothSolver:  Solving for Uy, Initial residual = 0.061344, Final residual = 0.00487086, No Iterations 1
smoothSolver:  Solving for Uz, Initial residual = 0.00747351, Final residual = 0.000626475, No Iterations 1
GAMG:  Solving for p, Initial residual = 0.0861441, Final residual = 0.000287538, No Iterations 3
time step continuity errors : sum local = 0.0186908, global = -0.00340246, cumulative = -0.203866
smoothSolver:  Solving for omega, Initial residual = 0.000850105, Final residual = 6.34569e-05, No Iterations 2
smoothSolver:  Solving for k, Initial residual = 0.00351577, Final residual = 0.00023075, No Iterations 2
ExecutionTime = 13.94 s  ClockTime = 14 s

Time = 48

smoothSolver:  Solving for Ux, Initial residual = 0.0617516, Final residual = 0.00420833, No Iterations 1
smoothSolver:  Solving for Uy, Initial residual = 0.0622941, Final residual = 0.00435403, No Iterations 1
smoothSolver:  Solving for Uz, Initial residual = 0.00634713, Final residual = 0.00054968, No Iterations 1
GAMG:  Solving for p, Initial residual = 0.0871728, Final residual = 0.00031166, No Iterations 3
time step continuity errors : sum local = 0.0189913, global = -0.00413329, cumulative = -0.208
smoothSolver:  Solving for omega, Initial residual = 0.000749593, Final residual = 5.79375e-05, No Iterations 2
smoothSolver:  Solving for k, Initial residual = 0.00314028, Final residual = 0.00021652, No Iterations 2
ExecutionTime = 14.23 s  ClockTime = 15 s

Time = 49

smoothSolver:  Solving for Ux, Initial residual = 0.059089, Final residual = 0.00387431, No Iterations 1
smoothSolver:  Solving for Uy, Initial residual = 0.0599939, Final residual = 0.0041397, No Iterations 1
smoothSolver:  Solving for Uz, Initial residual = 0.00544376, Final residual = 0.000508845, No Iterations 1
GAMG:  Solving for p, Initial residual = 0.0878673, Final residual = 0.000366509, No Iterations 3
time step continuity errors : sum local = 0.0209761, global = -0.00574407, cumulative = -0.213744
smoothSolver:  Solving for omega, Initial residual = 0.000664441, Final residual = 5.70063e-05, No Iterations 2
smoothSolver:  Solving for k, Initial residual = 0.00269052, Final residual = 0.00019893, No Iterations 2
ExecutionTime = 14.5 s  ClockTime = 15 s

Time = 50

smoothSolver:  Solving for Ux, Initial residual = 0.0543641, Final residual = 0.00381023, No Iterations 1
smoothSolver:  Solving for Uy, Initial residual = 0.0553384, Final residual = 0.0041092, No Iterations 1
smoothSolver:  Solving for Uz, Initial residual = 0.0047621, Final residual = 0.000455198, No Iterations 1
GAMG:  Solving for p, Initial residual = 0.0878087, Final residual = 0.000399913, No Iterations 3
time step continuity errors : sum local = 0.021566, global = -0.00612483, cumulative = -0.219869
smoothSolver:  Solving for omega, Initial residual = 0.000582633, Final residual = 5.60937e-05, No Iterations 2
smoothSolver:  Solving for k, Initial residual = 0.00221786, Final residual = 0.000186845, No Iterations 2
ExecutionTime = 14.76 s  ClockTime = 15 s

Time = 51

smoothSolver:  Solving for Ux, Initial residual = 0.0506436, Final residual = 0.0036738, No Iterations 1
smoothSolver:  Solving for Uy, Initial residual = 0.051594, Final residual = 0.00395992, No Iterations 1
smoothSolver:  Solving for Uz, Initial residual = 0.00412646, Final residual = 0.000136505, No Iterations 2
GAMG:  Solving for p, Initial residual = 0.0872963, Final residual = 0.000401173, No Iterations 3
time step continuity errors : sum local = 0.020438, global = -0.00548693, cumulative = -0.225356
smoothSolver:  Solving for omega, Initial residual = 0.000513038, Final residual = 2.27218e-05, No Iterations 3
smoothSolver:  Solving for k, Initial residual = 0.00183136, Final residual = 0.00018313, No Iterations 2
ExecutionTime = 15.03 s  ClockTime = 15 s

Time = 52

smoothSolver:  Solving for Ux, Initial residual = 0.050001, Final residual = 0.00367912, No Iterations 1
smoothSolver:  Solving for Uy, Initial residual = 0.0506745, Final residual = 0.00391567, No Iterations 1
smoothSolver:  Solving for Uz, Initial residual = 0.00343724, Final residual = 0.00033457, No Iterations 1
GAMG:  Solving for p, Initial residual = 0.0863339, Final residual = 0.000379113, No Iterations 3
time step continuity errors : sum local = 0.018276, global = -0.00492399, cumulative = -0.23028
smoothSolver:  Solving for omega, Initial residual = 0.000429173, Final residual = 2.14935e-05, No Iterations 3
smoothSolver:  Solving for k, Initial residual = 0.00154172, Final residual = 7.67395e-05, No Iterations 3
ExecutionTime = 15.3 s  ClockTime = 16 s

Time = 53

smoothSolver:  Solving for Ux, Initial residual = 0.0501426, Final residual = 0.00363704, No Iterations 1
smoothSolver:  Solving for Uy, Initial residual = 0.0505483, Final residual = 0.00385338, No Iterations 1
smoothSolver:  Solving for Uz, Initial residual = 0.00290644, Final residual = 0.000274388, No Iterations 1
GAMG:  Solving for p, Initial residual = 0.085148, Final residual = 0.000360068, No Iterations 3
time step continuity errors : sum local = 0.0164579, global = -0.00467298, cumulative = -0.234953
smoothSolver:  Solving for omega, Initial residual = 0.000370124, Final residual = 2.0465e-05, No Iterations 3
smoothSolver:  Solving for k, Initial residual = 0.00127641, Final residual = 7.37276e-05, No Iterations 3
ExecutionTime = 15.57 s  ClockTime = 16 s

Time = 54

smoothSolver:  Solving for Ux, Initial residual = 0.0496242, Final residual = 0.00348798, No Iterations 1
smoothSolver:  Solving for Uy, Initial residual = 0.0497043, Final residual = 0.00370865, No Iterations 1
smoothSolver:  Solving for Uz, Initial residual = 0.00245661, Final residual = 0.000228022, No Iterations 1
GAMG:  Solving for p, Initial residual = 0.0837605, Final residual = 0.000355365, No Iterations 3
time step continuity errors : sum local = 0.0154319, global = -0.00464378, cumulative = -0.239596
smoothSolver:  Solving for omega, Initial residual = 0.000323935, Final residual = 1.99357e-05, No Iterations 3
smoothSolver:  Solving for k, Initial residual = 0.00105949, Final residual = 6.95653e-05, No Iterations 3
ExecutionTime = 15.85 s  ClockTime = 16 s

Time = 55

smoothSolver:  Solving for Ux, Initial residual = 0.0476267, Final residual = 0.00325528, No Iterations 1
smoothSolver:  Solving for Uy, Initial residual = 0.0475109, Final residual = 0.00349676, No Iterations 1
smoothSolver:  Solving for Uz, Initial residual = 0.00211778, Final residual = 0.000207818, No Iterations 1
GAMG:  Solving for p, Initial residual = 0.0822081, Final residual = 0.00035392, No Iterations 3
time step continuity errors : sum local = 0.0146395, global = -0.00457004, cumulative = -0.244166
smoothSolver:  Solving for omega, Initial residual = 0.000292659, Final residual = 1.91484e-05, No Iterations 3
smoothSolver:  Solving for k, Initial residual = 0.000905709, Final residual = 6.63332e-05, No Iterations 3
ExecutionTime = 16.13 s  ClockTime = 17 s

Time = 56

smoothSolver:  Solving for Ux, Initial residual = 0.044795, Final residual = 0.00313144, No Iterations 1
smoothSolver:  Solving for Uy, Initial residual = 0.0444706, Final residual = 0.00325295, No Iterations 1
smoothSolver:  Solving for Uz, Initial residual = 0.00186919, Final residual = 7.66741e-05, No Iterations 2
GAMG:  Solving for p, Initial residual = 0.0803686, Final residual = 0.000351201, No Iterations 3
time step continuity errors : sum local = 0.0138764, global = -0.00440786, cumulative = -0.248574
smoothSolver:  Solving for omega, Initial residual = 0.000275446, Final residual = 1.85911e-05, No Iterations 3
smoothSolver:  Solving for k, Initial residual = 0.000812252, Final residual = 6.43012e-05, No Iterations 3
ExecutionTime = 16.42 s  ClockTime = 17 s

Time = 57

smoothSolver:  Solving for Ux, Initial residual = 0.0426468, Final residual = 0.00317752, No Iterations 1
smoothSolver:  Solving for Uy, Initial residual = 0.0418479, Final residual = 0.00312955, No Iterations 1
smoothSolver:  Solving for Uz, Initial residual = 0.00166901, Final residual = 7.14462e-05, No Iterations 2
GAMG:  Solving for p, Initial residual = 0.0781575, Final residual = 0.000335817, No Iterations 3
time step continuity errors : sum local = 0.0127115, global = -0.00410812, cumulative = -0.252682
smoothSolver:  Solving for omega, Initial residual = 0.000264179, Final residual = 1.78728e-05, No Iterations 3
smoothSolver:  Solving for k, Initial residual = 0.000759042, Final residual = 6.28839e-05, No Iterations 3
ExecutionTime = 16.71 s  ClockTime = 17 s

Time = 58

smoothSolver:  Solving for Ux, Initial residual = 0.0419324, Final residual = 0.00322051, No Iterations 1
smoothSolver:  Solving for Uy, Initial residual = 0.0408215, Final residual = 0.00319878, No Iterations 1
smoothSolver:  Solving for Uz, Initial residual = 0.00154728, Final residual = 6.86126e-05, No Iterations 2
GAMG:  Solving for p, Initial residual = 0.0757208, Final residual = 0.000314003, No Iterations 3
time step continuity errors : sum local = 0.0114204, global = -0.00369765, cumulative = -0.25638
smoothSolver:  Solving for omega, Initial residual = 0.000254172, Final residual = 1.7189e-05, No Iterations 3
smoothSolver:  Solving for k, Initial residual = 0.000723476, Final residual = 6.14791e-05, No Iterations 3
ExecutionTime = 16.97 s  ClockTime = 17 s

Time = 59

smoothSolver:  Solving for Ux, Initial residual = 0.0420626, Final residual = 0.00324661, No Iterations 1
smoothSolver:  Solving for Uy, Initial residual = 0.0409052, Final residual = 0.00321919, No Iterations 1
smoothSolver:  Solving for Uz, Initial residual = 0.0014661, Final residual = 6.79779e-05, No Iterations 2
GAMG:  Solving for p, Initial residual = 0.0731186, Final residual = 0.000294376, No Iterations 3
time step continuity errors : sum local = 0.0103247, global = -0.00325008, cumulative = -0.25963
smoothSolver:  Solving for omega, Initial residual = 0.000245773, Final residual = 1.63031e-05, No Iterations 3
smoothSolver:  Solving for k, Initial residual = 0.000697342, Final residual = 5.97434e-05, No Iterations 3
ExecutionTime = 17.26 s  ClockTime = 18 s

Time = 60

smoothSolver:  Solving for Ux, Initial residual = 0.0424313, Final residual = 0.00324905, No Iterations 1
smoothSolver:  Solving for Uy, Initial residual = 0.0411041, Final residual = 0.00315556, No Iterations 1
smoothSolver:  Solving for Uz, Initial residual = 0.00140722, Final residual = 6.61439e-05, No Iterations 2
GAMG:  Solving for p, Initial residual = 0.0703704, Final residual = 0.000280661, No Iterations 3
time step continuity errors : sum local = 0.00952095, global = -0.00280767, cumulative = -0.262438
smoothSolver:  Solving for omega, Initial residual = 0.000236043, Final residual = 1.54955e-05, No Iterations 3
smoothSolver:  Solving for k, Initial residual = 0.000675078, Final residual = 5.77826e-05, No Iterations 3
ExecutionTime = 17.57 s  ClockTime = 18 s

Time = 61

smoothSolver:  Solving for Ux, Initial residual = 0.0426194, Final residual = 0.00330661, No Iterations 1
smoothSolver:  Solving for Uy, Initial residual = 0.0413457, Final residual = 0.00317534, No Iterations 1
smoothSolver:  Solving for Uz, Initial residual = 0.00135024, Final residual = 6.28617e-05, No Iterations 2
GAMG:  Solving for p, Initial residual = 0.0674971, Final residual = 0.000269496, No Iterations 3
time step continuity errors : sum local = 0.008868, global = -0.00237129, cumulative = -0.264809
smoothSolver:  Solving for omega, Initial residual = 0.00022602, Final residual = 1.48919e-05, No Iterations 3
smoothSolver:  Solving for k, Initial residual = 0.000655073, Final residual = 5.5868e-05, No Iterations 3
ExecutionTime = 17.85 s  ClockTime = 18 s

Time = 62

smoothSolver:  Solving for Ux, Initial residual = 0.0424221, Final residual = 0.00323027, No Iterations 1
smoothSolver:  Solving for Uy, Initial residual = 0.0414525, Final residual = 0.00315739, No Iterations 1
smoothSolver:  Solving for Uz, Initial residual = 0.00129054, Final residual = 6.08138e-05, No Iterations 2
GAMG:  Solving for p, Initial residual = 0.0645379, Final residual = 0.000260868, No Iterations 3
time step continuity errors : sum local = 0.00834621, global = -0.00200852, cumulative = -0.266818
smoothSolver:  Solving for omega, Initial residual = 0.000215676, Final residual = 1.43052e-05, No Iterations 3
smoothSolver:  Solving for k, Initial residual = 0.000636128, Final residual = 5.42234e-05, No Iterations 3
ExecutionTime = 18.13 s  ClockTime = 19 s

Time = 63

smoothSolver:  Solving for Ux, Initial residual = 0.0416689, Final residual = 0.00321369, No Iterations 1
smoothSolver:  Solving for Uy, Initial residual = 0.0412675, Final residual = 0.00328189, No Iterations 1
smoothSolver:  Solving for Uz, Initial residual = 0.00122518, Final residual = 5.96728e-05, No Iterations 2
GAMG:  Solving for p, Initial residual = 0.0616224, Final residual = 0.0002507, No Iterations 3
time step continuity errors : sum local = 0.00781385, global = -0.0017609, cumulative = -0.268578
smoothSolver:  Solving for omega, Initial residual = 0.000205453, Final residual = 1.38224e-05, No Iterations 3
smoothSolver:  Solving for k, Initial residual = 0.000619178, Final residual = 5.29618e-05, No Iterations 3
ExecutionTime = 18.4 s  ClockTime = 19 s

Time = 64

smoothSolver:  Solving for Ux, Initial residual = 0.0404786, Final residual = 0.00321686, No Iterations 1
smoothSolver:  Solving for Uy, Initial residual = 0.0408872, Final residual = 0.00340735, No Iterations 1
smoothSolver:  Solving for Uz, Initial residual = 0.00116143, Final residual = 5.94516e-05, No Iterations 2
GAMG:  Solving for p, Initial residual = 0.0587043, Final residual = 0.000242893, No Iterations 3
time step continuity errors : sum local = 0.0073891, global = -0.00158947, cumulative = -0.270168
smoothSolver:  Solving for omega, Initial residual = 0.000193714, Final residual = 1.33844e-05, No Iterations 3
smoothSolver:  Solving for k, Initial residual = 0.000601927, Final residual = 5.19527e-05, No Iterations 3
ExecutionTime = 18.65 s  ClockTime = 19 s

Time = 65

smoothSolver:  Solving for Ux, Initial residual = 0.0392627, Final residual = 0.00322153, No Iterations 1
smoothSolver:  Solving for Uy, Initial residual = 0.0404812, Final residual = 0.00351144, No Iterations 1
smoothSolver:  Solving for Uz, Initial residual = 0.00110382, Final residual = 5.96357e-05, No Iterations 2
GAMG:  Solving for p, Initial residual = 0.0557885, Final residual = 0.000239554, No Iterations 3
time step continuity errors : sum local = 0.00712412, global = -0.0014752, cumulative = -0.271643
smoothSolver:  Solving for omega, Initial residual = 0.000184914, Final residual = 1.29804e-05, No Iterations 3
smoothSolver:  Solving for k, Initial residual = 0.000589148, Final residual = 5.05301e-05, No Iterations 3
ExecutionTime = 18.92 s  ClockTime = 19 s

Time = 66

smoothSolver:  Solving for Ux, Initial residual = 0.0380211, Final residual = 0.00321089, No Iterations 1
smoothSolver:  Solving for Uy, Initial residual = 0.0397573, Final residual = 0.00353955, No Iterations 1
smoothSolver:  Solving for Uz, Initial residual = 0.00105472, Final residual = 5.98151e-05, No Iterations 2
GAMG:  Solving for p, Initial residual = 0.0529417, Final residual = 0.000239417, No Iterations 3
time step continuity errors : sum local = 0.00697097, global = -0.00141161, cumulative = -0.273055
smoothSolver:  Solving for omega, Initial residual = 0.000179417, Final residual = 1.26023e-05, No Iterations 3
smoothSolver:  Solving for k, Initial residual = 0.000592777, Final residual = 4.91855e-05, No Iterations 3
ExecutionTime = 19.19 s  ClockTime = 20 s

Time = 67

smoothSolver:  Solving for Ux, Initial residual = 0.0368777, Final residual = 0.00321243, No Iterations 1
smoothSolver:  Solving for Uy, Initial residual = 0.0386834, Final residual = 0.00348931, No Iterations 1
smoothSolver:  Solving for Uz, Initial residual = 0.00100947, Final residual = 5.94644e-05, No Iterations 2
GAMG:  Solving for p, Initial residual = 0.0502038, Final residual = 0.000240478, No Iterations 3
time step continuity errors : sum local = 0.00686429, global = -0.00136252, cumulative = -0.274417
smoothSolver:  Solving for omega, Initial residual = 0.000173406, Final residual = 1.21058e-05, No Iterations 3
smoothSolver:  Solving for k, Initial residual = 0.000594014, Final residual = 4.76333e-05, No Iterations 3
ExecutionTime = 19.48 s  ClockTime = 20 s

Time = 68

smoothSolver:  Solving for Ux, Initial residual = 0.0360233, Final residual = 0.00325626, No Iterations 1
smoothSolver:  Solving for Uy, Initial residual = 0.0376026, Final residual = 0.00352684, No Iterations 1
smoothSolver:  Solving for Uz, Initial residual = 0.000970783, Final residual = 5.91077e-05, No Iterations 2
GAMG:  Solving for p, Initial residual = 0.0475478, Final residual = 0.000239125, No Iterations 3
time step continuity errors : sum local = 0.00669984, global = -0.00130047, cumulative = -0.275718
smoothSolver:  Solving for omega, Initial residual = 0.000166271, Final residual = 1.14076e-05, No Iterations 3
smoothSolver:  Solving for k, Initial residual = 0.000587958, Final residual = 4.58651e-05, No Iterations 3
ExecutionTime = 19.8 s  ClockTime = 20 s

Time = 69

smoothSolver:  Solving for Ux, Initial residual = 0.0354531, Final residual = 0.00335559, No Iterations 1
smoothSolver:  Solving for Uy, Initial residual = 0.0367073, Final residual = 0.00358651, No Iterations 1
smoothSolver:  Solving for Uz, Initial residual = 0.000936449, Final residual = 5.81563e-05, No Iterations 2
GAMG:  Solving for p, Initial residual = 0.0450601, Final residual = 0.000236252, No Iterations 3
time step continuity errors : sum local = 0.00650415, global = -0.00122344, cumulative = -0.276941
smoothSolver:  Solving for omega, Initial residual = 0.00015953, Final residual = 1.09578e-05, No Iterations 3
smoothSolver:  Solving for k, Initial residual = 0.000581894, Final residual = 4.4278e-05, No Iterations 3
ExecutionTime = 20.07 s  ClockTime = 20 s

Time = 70

smoothSolver:  Solving for Ux, Initial residual = 0.0351401, Final residual = 0.00345736, No Iterations 1
smoothSolver:  Solving for Uy, Initial residual = 0.0360001, Final residual = 0.00145897, No Iterations 2
smoothSolver:  Solving for Uz, Initial residual = 0.000902748, Final residual = 5.59044e-05, No Iterations 2
GAMG:  Solving for p, Initial residual = 0.0426946, Final residual = 0.000233014, No Iterations 3
time step continuity errors : sum local = 0.00631113, global = -0.00117494, cumulative = -0.278116
smoothSolver:  Solving for omega, Initial residual = 0.000154618, Final residual = 1.07631e-05, No Iterations 3
smoothSolver:  Solving for k, Initial residual = 0.000576608, Final residual = 4.28697e-05, No Iterations 3
ExecutionTime = 20.38 s  ClockTime = 21 s

Time = 71

smoothSolver:  Solving for Ux, Initial residual = 0.0350808, Final residual = 0.00146607, No Iterations 2
smoothSolver:  Solving for Uy, Initial residual = 0.0349034, Final residual = 0.00147256, No Iterations 2
smoothSolver:  Solving for Uz, Initial residual = 0.000872169, Final residual = 5.38066e-05, No Iterations 2
GAMG:  Solving for p, Initial residual = 0.040416, Final residual = 0.00022991, No Iterations 3
time step continuity errors : sum local = 0.00613035, global = -0.001136, cumulative = -0.279252
smoothSolver:  Solving for omega, Initial residual = 0.000151205, Final residual = 1.08045e-05, No Iterations 3
smoothSolver:  Solving for k, Initial residual = 0.000571864, Final residual = 4.18995e-05, No Iterations 3
ExecutionTime = 20.65 s  ClockTime = 21 s

Time = 72

smoothSolver:  Solving for Ux, Initial residual = 0.0345764, Final residual = 0.00152643, No Iterations 2
smoothSolver:  Solving for Uy, Initial residual = 0.0341952, Final residual = 0.0015137, No Iterations 2
smoothSolver:  Solving for Uz, Initial residual = 0.000845519, Final residual = 5.26446e-05, No Iterations 2
GAMG:  Solving for p, Initial residual = 0.0382683, Final residual = 0.000224021, No Iterations 3
time step continuity errors : sum local = 0.00588274, global = -0.00108337, cumulative = -0.280335
smoothSolver:  Solving for omega, Initial residual = 0.00014715, Final residual = 1.08865e-05, No Iterations 3
smoothSolver:  Solving for k, Initial residual = 0.000566043, Final residual = 4.1212e-05, No Iterations 3
ExecutionTime = 20.92 s  ClockTime = 21 s

Time = 73

smoothSolver:  Solving for Ux, Initial residual = 0.0341713, Final residual = 0.00157472, No Iterations 2
smoothSolver:  Solving for Uy, Initial residual = 0.0337552, Final residual = 0.00157809, No Iterations 2
smoothSolver:  Solving for Uz, Initial residual = 0.000817568, Final residual = 5.2076e-05, No Iterations 2
GAMG:  Solving for p, Initial residual = 0.0362241, Final residual = 0.000215743, No Iterations 3
time step continuity errors : sum local = 0.00558334, global = -0.00101462, cumulative = -0.28135
smoothSolver:  Solving for omega, Initial residual = 0.000144187, Final residual = 1.07891e-05, No Iterations 3
smoothSolver:  Solving for k, Initial residual = 0.000561682, Final residual = 4.1107e-05, No Iterations 3
ExecutionTime = 21.2 s  ClockTime = 22 s

Time = 74

smoothSolver:  Solving for Ux, Initial residual = 0.0337755, Final residual = 0.00160623, No Iterations 2
smoothSolver:  Solving for Uy, Initial residual = 0.0332998, Final residual = 0.00161713, No Iterations 2
smoothSolver:  Solving for Uz, Initial residual = 0.000792254, Final residual = 5.17473e-05, No Iterations 2
GAMG:  Solving for p, Initial residual = 0.0342367, Final residual = 0.00020451, No Iterations 3
time step continuity errors : sum local = 0.00521999, global = -0.000933238, cumulative = -0.282283
smoothSolver:  Solving for omega, Initial residual = 0.000140327, Final residual = 1.06464e-05, No Iterations 3
smoothSolver:  Solving for k, Initial residual = 0.000558366, Final residual = 4.08385e-05, No Iterations 3
ExecutionTime = 21.5 s  ClockTime = 22 s

Time = 75

smoothSolver:  Solving for Ux, Initial residual = 0.0331977, Final residual = 0.00159427, No Iterations 2
smoothSolver:  Solving for Uy, Initial residual = 0.0327931, Final residual = 0.00163769, No Iterations 2
smoothSolver:  Solving for Uz, Initial residual = 0.000766879, Final residual = 5.1231e-05, No Iterations 2
GAMG:  Solving for p, Initial residual = 0.0323133, Final residual = 0.000191531, No Iterations 3
time step continuity errors : sum local = 0.00482532, global = -0.000841887, cumulative = -0.283125
smoothSolver:  Solving for omega, Initial residual = 0.000135988, Final residual = 1.03561e-05, No Iterations 3
smoothSolver:  Solving for k, Initial residual = 0.000551063, Final residual = 3.98826e-05, No Iterations 3
ExecutionTime = 21.81 s  ClockTime = 22 s

Time = 76

smoothSolver:  Solving for Ux, Initial residual = 0.0326152, Final residual = 0.00158088, No Iterations 2
smoothSolver:  Solving for Uy, Initial residual = 0.0324146, Final residual = 0.00163506, No Iterations 2
smoothSolver:  Solving for Uz, Initial residual = 0.000739704, Final residual = 5.05363e-05, No Iterations 2
GAMG:  Solving for p, Initial residual = 0.0304909, Final residual = 0.000177921, No Iterations 3
time step continuity errors : sum local = 0.00442709, global = -0.000750112, cumulative = -0.283875
smoothSolver:  Solving for omega, Initial residual = 0.000132482, Final residual = 1.00146e-05, No Iterations 3
smoothSolver:  Solving for k, Initial residual = 0.000543283, Final residual = 3.8681e-05, No Iterations 3
ExecutionTime = 22.07 s  ClockTime = 22 s

Time = 77

smoothSolver:  Solving for Ux, Initial residual = 0.0321224, Final residual = 0.0015608, No Iterations 2
smoothSolver:  Solving for Uy, Initial residual = 0.0322679, Final residual = 0.00162205, No Iterations 2
smoothSolver:  Solving for Uz, Initial residual = 0.000710571, Final residual = 4.94289e-05, No Iterations 2
GAMG:  Solving for p, Initial residual = 0.0287655, Final residual = 0.000165907, No Iterations 3
time step continuity errors : sum local = 0.00407882, global = -0.000665621, cumulative = -0.284541
smoothSolver:  Solving for omega, Initial residual = 0.000127732, Final residual = 9.67952e-06, No Iterations 3
smoothSolver:  Solving for k, Initial residual = 0.000530936, Final residual = 3.77673e-05, No Iterations 3
ExecutionTime = 22.35 s  ClockTime = 23 s

Time = 78

smoothSolver:  Solving for Ux, Initial residual = 0.0319255, Final residual = 0.00154848, No Iterations 2
smoothSolver:  Solving for Uy, Initial residual = 0.0323462, Final residual = 0.00161611, No Iterations 2
smoothSolver:  Solving for Uz, Initial residual = 0.000677927, Final residual = 4.81591e-05, No Iterations 2
GAMG:  Solving for p, Initial residual = 0.0271383, Final residual = 0.000156664, No Iterations 3
time step continuity errors : sum local = 0.0038065, global = -0.000586574, cumulative = -0.285128
smoothSolver:  Solving for omega, Initial residual = 0.000123544, Final residual = 9.38006e-06, No Iterations 3
smoothSolver:  Solving for k, Initial residual = 0.00051289, Final residual = 3.68922e-05, No Iterations 3
ExecutionTime = 22.63 s  ClockTime = 23 s

Time = 79

smoothSolver:  Solving for Ux, Initial residual = 0.0319103, Final residual = 0.00154822, No Iterations 2
smoothSolver:  Solving for Uy, Initial residual = 0.0325904, Final residual = 0.00162399, No Iterations 2
smoothSolver:  Solving for Uz, Initial residual = 0.000647047, Final residual = 4.67486e-05, No Iterations 2
GAMG:  Solving for p, Initial residual = 0.0256087, Final residual = 0.000149982, No Iterations 3
time step continuity errors : sum local = 0.00360216, global = -0.000507402, cumulative = -0.285635
smoothSolver:  Solving for omega, Initial residual = 0.000119171, Final residual = 9.09152e-06, No Iterations 3
smoothSolver:  Solving for k, Initial residual = 0.000489098, Final residual = 3.59009e-05, No Iterations 3
ExecutionTime = 22.92 s  ClockTime = 23 s

Time = 80

smoothSolver:  Solving for Ux, Initial residual = 0.0320059, Final residual = 0.0015551, No Iterations 2
smoothSolver:  Solving for Uy, Initial residual = 0.0330021, Final residual = 0.00165325, No Iterations 2
smoothSolver:  Solving for Uz, Initial residual = 0.000615518, Final residual = 4.50933e-05, No Iterations 2
GAMG:  Solving for p, Initial residual = 0.0241784, Final residual = 0.000144494, No Iterations 3
time step continuity errors : sum local = 0.0034309, global = -0.00042709, cumulative = -0.286062
smoothSolver:  Solving for omega, Initial residual = 0.000113884, Final residual = 8.7472e-06, No Iterations 3
smoothSolver:  Solving for k, Initial residual = 0.000461197, Final residual = 3.45515e-05, No Iterations 3
ExecutionTime = 23.19 s  ClockTime = 24 s

Time = 81

smoothSolver:  Solving for Ux, Initial residual = 0.0320574, Final residual = 0.00157294, No Iterations 2
smoothSolver:  Solving for Uy, Initial residual = 0.0334482, Final residual = 0.00168546, No Iterations 2
smoothSolver:  Solving for Uz, Initial residual = 0.000584039, Final residual = 4.32865e-05, No Iterations 2
GAMG:  Solving for p, Initial residual = 0.0228288, Final residual = 0.000139004, No Iterations 3
time step continuity errors : sum local = 0.00326351, global = -0.000345284, cumulative = -0.286407
smoothSolver:  Solving for omega, Initial residual = 0.00010898, Final residual = 8.41386e-06, No Iterations 3
smoothSolver:  Solving for k, Initial residual = 0.000434818, Final residual = 3.28528e-05, No Iterations 3
ExecutionTime = 23.44 s  ClockTime = 24 s

Time = 82

smoothSolver:  Solving for Ux, Initial residual = 0.0319769, Final residual = 0.0016015, No Iterations 2
smoothSolver:  Solving for Uy, Initial residual = 0.0338089, Final residual = 0.00171333, No Iterations 2
smoothSolver:  Solving for Uz, Initial residual = 0.000557557, Final residual = 4.13567e-05, No Iterations 2
GAMG:  Solving for p, Initial residual = 0.0215426, Final residual = 0.000132922, No Iterations 3
time step continuity errors : sum local = 0.00308628, global = -0.00026571, cumulative = -0.286673
smoothSolver:  Solving for omega, Initial residual = 0.000104752, Final residual = 8.11e-06, No Iterations 3
smoothSolver:  Solving for k, Initial residual = 0.000409611, Final residual = 3.10661e-05, No Iterations 3
ExecutionTime = 23.69 s  ClockTime = 24 s

Time = 83

smoothSolver:  Solving for Ux, Initial residual = 0.0317666, Final residual = 0.00163363, No Iterations 2
smoothSolver:  Solving for Uy, Initial residual = 0.0337692, Final residual = 0.00173144, No Iterations 2
smoothSolver:  Solving for Uz, Initial residual = 0.000535901, Final residual = 3.9484e-05, No Iterations 2
GAMG:  Solving for p, Initial residual = 0.0203253, Final residual = 0.0001252, No Iterations 3
time step continuity errors : sum local = 0.0028757, global = -0.000193338, cumulative = -0.286866
smoothSolver:  Solving for omega, Initial residual = 0.000101289, Final residual = 7.8189e-06, No Iterations 3
smoothSolver:  Solving for k, Initial residual = 0.000387884, Final residual = 2.93772e-05, No Iterations 3
ExecutionTime = 23.97 s  ClockTime = 24 s

Time = 84

smoothSolver:  Solving for Ux, Initial residual = 0.0314473, Final residual = 0.00165313, No Iterations 2
smoothSolver:  Solving for Uy, Initial residual = 0.0329128, Final residual = 0.00171749, No Iterations 2
smoothSolver:  Solving for Uz, Initial residual = 0.00051903, Final residual = 3.78093e-05, No Iterations 2
GAMG:  Solving for p, Initial residual = 0.0191873, Final residual = 0.000117607, No Iterations 3
time step continuity errors : sum local = 0.00267332, global = -0.000131187, cumulative = -0.286998
smoothSolver:  Solving for omega, Initial residual = 0.000103701, Final residual = 7.85576e-06, No Iterations 3
smoothSolver:  Solving for k, Initial residual = 0.000370143, Final residual = 2.77304e-05, No Iterations 3
ExecutionTime = 24.25 s  ClockTime = 25 s

Time = 85

smoothSolver:  Solving for Ux, Initial residual = 0.0310174, Final residual = 0.00166484, No Iterations 2
smoothSolver:  Solving for Uy, Initial residual = 0.0312292, Final residual = 0.00166594, No Iterations 2
smoothSolver:  Solving for Uz, Initial residual = 0.000505405, Final residual = 3.6578e-05, No Iterations 2
GAMG:  Solving for p, Initial residual = 0.018124, Final residual = 0.000109928, No Iterations 3
time step continuity errors : sum local = 0.00247416, global = -8.87346e-05, cumulative = -0.287086
smoothSolver:  Solving for omega, Initial residual = 0.000103403, Final residual = 7.42324e-06, No Iterations 3
smoothSolver:  Solving for k, Initial residual = 0.000353751, Final residual = 2.62894e-05, No Iterations 3
ExecutionTime = 24.51 s  ClockTime = 25 s

Time = 86

smoothSolver:  Solving for Ux, Initial residual = 0.030333, Final residual = 0.00165431, No Iterations 2
smoothSolver:  Solving for Uy, Initial residual = 0.029216, Final residual = 0.00158798, No Iterations 2
smoothSolver:  Solving for Uz, Initial residual = 0.000490631, Final residual = 3.54953e-05, No Iterations 2
GAMG:  Solving for p, Initial residual = 0.0171509, Final residual = 0.000104611, No Iterations 3
time step continuity errors : sum local = 0.00233311, global = -5.88317e-05, cumulative = -0.287145
smoothSolver:  Solving for omega, Initial residual = 9.53116e-05, Final residual = 7.24961e-06, No Iterations 3
smoothSolver:  Solving for k, Initial residual = 0.000339431, Final residual = 2.51751e-05, No Iterations 3
ExecutionTime = 24.78 s  ClockTime = 25 s

Time = 87

smoothSolver:  Solving for Ux, Initial residual = 0.0294524, Final residual = 0.00164461, No Iterations 2
smoothSolver:  Solving for Uy, Initial residual = 0.0272221, Final residual = 0.00150152, No Iterations 2
smoothSolver:  Solving for Uz, Initial residual = 0.000472813, Final residual = 3.45356e-05, No Iterations 2
GAMG:  Solving for p, Initial residual = 0.0162435, Final residual = 0.000100326, No Iterations 3
time step continuity errors : sum local = 0.00221923, global = -4.23129e-05, cumulative = -0.287187
smoothSolver:  Solving for omega, Initial residual = 9.12578e-05, Final residual = 7.13137e-06, No Iterations 3
smoothSolver:  Solving for k, Initial residual = 0.000326729, Final residual = 2.43439e-05, No Iterations 3
ExecutionTime = 25.03 s  ClockTime = 25 s

Time = 88

smoothSolver:  Solving for Ux, Initial residual = 0.0283565, Final residual = 0.00162776, No Iterations 2
smoothSolver:  Solving for Uy, Initial residual = 0.0253387, Final residual = 0.00142955, No Iterations 2
smoothSolver:  Solving for Uz, Initial residual = 0.000452925, Final residual = 3.3585e-05, No Iterations 2
GAMG:  Solving for p, Initial residual = 0.0153766, Final residual = 9.6995e-05, No Iterations 3
time step continuity errors : sum local = 0.00213012, global = -3.88962e-05, cumulative = -0.287226
smoothSolver:  Solving for omega, Initial residual = 8.82914e-05, Final residual = 7.0017e-06, No Iterations 3
smoothSolver:  Solving for k, Initial residual = 0.000314426, Final residual = 2.36447e-05, No Iterations 3
ExecutionTime = 25.31 s  ClockTime = 26 s

Time = 89

smoothSolver:  Solving for Ux, Initial residual = 0.0271786, Final residual = 0.00160737, No Iterations 2
smoothSolver:  Solving for Uy, Initial residual = 0.0236158, Final residual = 0.00137073, No Iterations 2
smoothSolver:  Solving for Uz, Initial residual = 0.000433722, Final residual = 3.28322e-05, No Iterations 2
GAMG:  Solving for p, Initial residual = 0.0145457, Final residual = 9.45214e-05, No Iterations 3
time step continuity errors : sum local = 0.00206296, global = -4.86149e-05, cumulative = -0.287275
smoothSolver:  Solving for omega, Initial residual = 8.55544e-05, Final residual = 6.90761e-06, No Iterations 3
smoothSolver:  Solving for k, Initial residual = 0.000302041, Final residual = 2.30655e-05, No Iterations 3
ExecutionTime = 25.57 s  ClockTime = 26 s

Time = 90

smoothSolver:  Solving for Ux, Initial residual = 0.0259911, Final residual = 0.00157996, No Iterations 2
smoothSolver:  Solving for Uy, Initial residual = 0.0220971, Final residual = 0.00131769, No Iterations 2
smoothSolver:  Solving for Uz, Initial residual = 0.00041416, Final residual = 3.22386e-05, No Iterations 2
GAMG:  Solving for p, Initial residual = 0.0137365, Final residual = 9.23856e-05, No Iterations 3
time step continuity errors : sum local = 0.00200581, global = -6.90915e-05, cumulative = -0.287344
smoothSolver:  Solving for omega, Initial residual = 8.31414e-05, Final residual = 6.82609e-06, No Iterations 3
smoothSolver:  Solving for k, Initial residual = 0.000290113, Final residual = 2.26266e-05, No Iterations 3
ExecutionTime = 25.82 s  ClockTime = 26 s

Time = 91

smoothSolver:  Solving for Ux, Initial residual = 0.0247679, Final residual = 0.0015471, No Iterations 2
smoothSolver:  Solving for Uy, Initial residual = 0.020723, Final residual = 0.00127025, No Iterations 2
smoothSolver:  Solving for Uz, Initial residual = 0.000393155, Final residual = 3.17407e-05, No Iterations 2
GAMG:  Solving for p, Initial residual = 0.0129517, Final residual = 9.03677e-05, No Iterations 3
time step continuity errors : sum local = 0.00195343, global = -9.74422e-05, cumulative = -0.287441
smoothSolver:  Solving for omega, Initial residual = 8.08682e-05, Final residual = 6.75194e-06, No Iterations 3
smoothSolver:  Solving for k, Initial residual = 0.000279201, Final residual = 2.22951e-05, No Iterations 3
ExecutionTime = 26.09 s  ClockTime = 26 s

Time = 92

smoothSolver:  Solving for Ux, Initial residual = 0.0235177, Final residual = 0.0015123, No Iterations 2
smoothSolver:  Solving for Uy, Initial residual = 0.0194675, Final residual = 0.00122809, No Iterations 2
smoothSolver:  Solving for Uz, Initial residual = 0.000371545, Final residual = 3.12936e-05, No Iterations 2
GAMG:  Solving for p, Initial residual = 0.0122017, Final residual = 8.83685e-05, No Iterations 3
time step continuity errors : sum local = 0.00190321, global = -0.000129463, cumulative = -0.287571
smoothSolver:  Solving for omega, Initial residual = 7.87463e-05, Final residual = 6.67744e-06, No Iterations 3
smoothSolver:  Solving for k, Initial residual = 0.000269697, Final residual = 2.2004e-05, No Iterations 3
ExecutionTime = 26.35 s  ClockTime = 27 s

Time = 93

smoothSolver:  Solving for Ux, Initial residual = 0.0222636, Final residual = 0.0014799, No Iterations 2
smoothSolver:  Solving for Uy, Initial residual = 0.0183316, Final residual = 0.00119274, No Iterations 2
smoothSolver:  Solving for Uz, Initial residual = 0.000350463, Final residual = 3.08783e-05, No Iterations 2
GAMG:  Solving for p, Initial residual = 0.0114855, Final residual = 8.54887e-05, No Iterations 3
time step continuity errors : sum local = 0.00183551, global = -0.000161256, cumulative = -0.287732
smoothSolver:  Solving for omega, Initial residual = 7.66838e-05, Final residual = 6.59009e-06, No Iterations 3
smoothSolver:  Solving for k, Initial residual = 0.000260474, Final residual = 2.1724e-05, No Iterations 3
ExecutionTime = 26.64 s  ClockTime = 27 s

Time = 94

smoothSolver:  Solving for Ux, Initial residual = 0.0210221, Final residual = 0.00144782, No Iterations 2
smoothSolver:  Solving for Uy, Initial residual = 0.0172986, Final residual = 0.00116059, No Iterations 2
smoothSolver:  Solving for Uz, Initial residual = 0.00033112, Final residual = 3.04646e-05, No Iterations 2
GAMG:  Solving for p, Initial residual = 0.0108069, Final residual = 8.24832e-05, No Iterations 3
time step continuity errors : sum local = 0.00176628, global = -0.000189208, cumulative = -0.287921
smoothSolver:  Solving for omega, Initial residual = 7.468e-05, Final residual = 6.49506e-06, No Iterations 3
smoothSolver:  Solving for k, Initial residual = 0.000251552, Final residual = 2.14473e-05, No Iterations 3
ExecutionTime = 26.92 s  ClockTime = 27 s

Time = 95

smoothSolver:  Solving for Ux, Initial residual = 0.0198883, Final residual = 0.0014176, No Iterations 2
smoothSolver:  Solving for Uy, Initial residual = 0.0163755, Final residual = 0.00113176, No Iterations 2
smoothSolver:  Solving for Uz, Initial residual = 0.000313433, Final residual = 3.00467e-05, No Iterations 2
GAMG:  Solving for p, Initial residual = 0.0101634, Final residual = 7.90586e-05, No Iterations 3
time step continuity errors : sum local = 0.00168898, global = -0.000210822, cumulative = -0.288132
smoothSolver:  Solving for omega, Initial residual = 7.27877e-05, Final residual = 6.39514e-06, No Iterations 3
smoothSolver:  Solving for k, Initial residual = 0.000243072, Final residual = 2.11604e-05, No Iterations 3
ExecutionTime = 27.23 s  ClockTime = 28 s

Time = 96

smoothSolver:  Solving for Ux, Initial residual = 0.0188783, Final residual = 0.00138869, No Iterations 2
smoothSolver:  Solving for Uy, Initial residual = 0.0155679, Final residual = 0.00110526, No Iterations 2
smoothSolver:  Solving for Uz, Initial residual = 0.000297563, Final residual = 2.95829e-05, No Iterations 2
GAMG:  Solving for p, Initial residual = 0.00956002, Final residual = 7.56776e-05, No Iterations 3
time step continuity errors : sum local = 0.0016133, global = -0.000224789, cumulative = -0.288357
smoothSolver:  Solving for omega, Initial residual = 7.10773e-05, Final residual = 6.29746e-06, No Iterations 3
smoothSolver:  Solving for k, Initial residual = 0.000235015, Final residual = 2.088e-05, No Iterations 3
ExecutionTime = 27.53 s  ClockTime = 28 s

Time = 97

smoothSolver:  Solving for Ux, Initial residual = 0.0180086, Final residual = 0.00136061, No Iterations 2
smoothSolver:  Solving for Uy, Initial residual = 0.0148607, Final residual = 0.00108106, No Iterations 2
smoothSolver:  Solving for Uz, Initial residual = 0.000283014, Final residual = 1.40841e-05, No Iterations 3
GAMG:  Solving for p, Initial residual = 0.00900246, Final residual = 7.25319e-05, No Iterations 3
time step continuity errors : sum local = 0.00154315, global = -0.000229643, cumulative = -0.288587
smoothSolver:  Solving for omega, Initial residual = 7.03709e-05, Final residual = 6.27249e-06, No Iterations 3
smoothSolver:  Solving for k, Initial residual = 0.000229307, Final residual = 2.06659e-05, No Iterations 3
ExecutionTime = 27.8 s  ClockTime = 28 s

Time = 98

smoothSolver:  Solving for Ux, Initial residual = 0.0173207, Final residual = 0.00134692, No Iterations 2
smoothSolver:  Solving for Uy, Initial residual = 0.0142926, Final residual = 0.00106861, No Iterations 2
smoothSolver:  Solving for Uz, Initial residual = 0.000270206, Final residual = 1.38214e-05, No Iterations 3
GAMG:  Solving for p, Initial residual = 0.00847841, Final residual = 6.91671e-05, No Iterations 3
time step continuity errors : sum local = 0.00146932, global = -0.000227388, cumulative = -0.288814
smoothSolver:  Solving for omega, Initial residual = 6.95119e-05, Final residual = 6.23839e-06, No Iterations 3
smoothSolver:  Solving for k, Initial residual = 0.000222698, Final residual = 2.03917e-05, No Iterations 3
ExecutionTime = 28.06 s  ClockTime = 28 s

Time = 99

smoothSolver:  Solving for Ux, Initial residual = 0.0167216, Final residual = 0.00134208, No Iterations 2
[...]
smoothSolver:  Solving for Uz, Initial residual = 2.01558e-06, Final residual = 8.99641e-07, No Iterations 1
GAMG:  Solving for p, Initial residual = 1.90429e-05, Final residual = 4.08426e-07, No Iterations 2
time step continuity errors : sum local = 8.03572e-06, global = -2.68451e-07, cumulative = -0.290505
smoothSolver:  Solving for omega, Initial residual = 1.37008e-06, Final residual = 6.19241e-07, No Iterations 1
smoothSolver:  Solving for k, Initial residual = 3.50449e-06, Final residual = 7.9823e-07, No Iterations 2
ExecutionTime = 125.02 s  ClockTime = 125 s

Time = 407

smoothSolver:  Solving for Ux, Initial residual = 0.000141036, Final residual = 1.046e-05, No Iterations 3
smoothSolver:  Solving for Uy, Initial residual = 0.000132599, Final residual = 9.69824e-06, No Iterations 3
smoothSolver:  Solving for Uz, Initial residual = 1.99525e-06, Final residual = 8.9004e-07, No Iterations 1
GAMG:  Solving for p, Initial residual = 1.89786e-05, Final residual = 4.04651e-07, No Iterations 2
time step continuity errors : sum local = 7.96135e-06, global = -2.53154e-07, cumulative = -0.290505
smoothSolver:  Solving for omega, Initial residual = 1.34313e-06, Final residual = 6.06497e-07, No Iterations 1
smoothSolver:  Solving for k, Initial residual = 3.45619e-06, Final residual = 7.86403e-07, No Iterations 2
ExecutionTime = 125.28 s  ClockTime = 126 s

Time = 408

smoothSolver:  Solving for Ux, Initial residual = 0.000138798, Final residual = 1.02735e-05, No Iterations 3
smoothSolver:  Solving for Uy, Initial residual = 0.000130522, Final residual = 9.53106e-06, No Iterations 3
smoothSolver:  Solving for Uz, Initial residual = 1.97428e-06, Final residual = 8.80393e-07, No Iterations 1
GAMG:  Solving for p, Initial residual = 1.89109e-05, Final residual = 4.02401e-07, No Iterations 2
time step continuity errors : sum local = 7.917e-06, global = -2.31811e-07, cumulative = -0.290506
smoothSolver:  Solving for omega, Initial residual = 1.31702e-06, Final residual = 5.94195e-07, No Iterations 1
smoothSolver:  Solving for k, Initial residual = 3.40815e-06, Final residual = 7.74658e-07, No Iterations 2
ExecutionTime = 125.52 s  ClockTime = 126 s

Time = 409

smoothSolver:  Solving for Ux, Initial residual = 0.000136663, Final residual = 1.01027e-05, No Iterations 3
smoothSolver:  Solving for Uy, Initial residual = 0.000128428, Final residual = 9.36747e-06, No Iterations 3
smoothSolver:  Solving for Uz, Initial residual = 1.95315e-06, Final residual = 8.70563e-07, No Iterations 1
GAMG:  Solving for p, Initial residual = 1.88343e-05, Final residual = 4.01852e-07, No Iterations 2
time step continuity errors : sum local = 7.90611e-06, global = -2.08477e-07, cumulative = -0.290506
smoothSolver:  Solving for omega, Initial residual = 1.29203e-06, Final residual = 5.82307e-07, No Iterations 1
smoothSolver:  Solving for k, Initial residual = 3.36074e-06, Final residual = 7.62886e-07, No Iterations 2
ExecutionTime = 125.77 s  ClockTime = 126 s

Time = 410

smoothSolver:  Solving for Ux, Initial residual = 0.000134651, Final residual = 9.95096e-06, No Iterations 3
smoothSolver:  Solving for Uy, Initial residual = 0.000126346, Final residual = 9.2119e-06, No Iterations 3
smoothSolver:  Solving for Uz, Initial residual = 1.93206e-06, Final residual = 8.60591e-07, No Iterations 1
GAMG:  Solving for p, Initial residual = 1.87548e-05, Final residual = 4.02593e-07, No Iterations 2
time step continuity errors : sum local = 7.92062e-06, global = -1.86471e-07, cumulative = -0.290506
smoothSolver:  Solving for omega, Initial residual = 1.26784e-06, Final residual = 5.70807e-07, No Iterations 1
smoothSolver:  Solving for k, Initial residual = 3.31391e-06, Final residual = 7.51216e-07, No Iterations 2
ExecutionTime = 126.05 s  ClockTime = 126 s

Time = 411

smoothSolver:  Solving for Ux, Initial residual = 0.000132754, Final residual = 9.82726e-06, No Iterations 3
smoothSolver:  Solving for Uy, Initial residual = 0.000124315, Final residual = 9.06561e-06, No Iterations 3
smoothSolver:  Solving for Uz, Initial residual = 1.91062e-06, Final residual = 8.50662e-07, No Iterations 1
GAMG:  Solving for p, Initial residual = 1.86532e-05, Final residual = 4.03896e-07, No Iterations 2
time step continuity errors : sum local = 7.94621e-06, global = -1.67918e-07, cumulative = -0.290506
smoothSolver:  Solving for omega, Initial residual = 1.24455e-06, Final residual = 5.59916e-07, No Iterations 1
smoothSolver:  Solving for k, Initial residual = 3.26761e-06, Final residual = 7.39684e-07, No Iterations 2
ExecutionTime = 126.33 s  ClockTime = 127 s

Time = 412

smoothSolver:  Solving for Ux, Initial residual = 0.000130972, Final residual = 9.72328e-06, No Iterations 3
smoothSolver:  Solving for Uy, Initial residual = 0.000122309, Final residual = 8.93104e-06, No Iterations 3
smoothSolver:  Solving for Uz, Initial residual = 1.88881e-06, Final residual = 8.40741e-07, No Iterations 1
GAMG:  Solving for p, Initial residual = 1.85421e-05, Final residual = 4.05019e-07, No Iterations 2
time step continuity errors : sum local = 7.96825e-06, global = -1.55353e-07, cumulative = -0.290506
smoothSolver:  Solving for omega, Initial residual = 1.22252e-06, Final residual = 5.49697e-07, No Iterations 1
smoothSolver:  Solving for k, Initial residual = 3.22185e-06, Final residual = 7.2834e-07, No Iterations 2
ExecutionTime = 126.65 s  ClockTime = 127 s

Time = 413

smoothSolver:  Solving for Ux, Initial residual = 0.000129297, Final residual = 9.63166e-06, No Iterations 3
smoothSolver:  Solving for Uy, Initial residual = 0.000120346, Final residual = 8.81438e-06, No Iterations 3
smoothSolver:  Solving for Uz, Initial residual = 1.86653e-06, Final residual = 8.30762e-07, No Iterations 1
GAMG:  Solving for p, Initial residual = 1.84111e-05, Final residual = 4.05232e-07, No Iterations 2
time step continuity errors : sum local = 7.97239e-06, global = -1.49783e-07, cumulative = -0.290507
smoothSolver:  Solving for omega, Initial residual = 1.20181e-06, Final residual = 5.40044e-07, No Iterations 1
smoothSolver:  Solving for k, Initial residual = 3.17631e-06, Final residual = 7.17212e-07, No Iterations 2
ExecutionTime = 126.95 s  ClockTime = 127 s

Time = 414

smoothSolver:  Solving for Ux, Initial residual = 0.000127667, Final residual = 9.55526e-06, No Iterations 3
smoothSolver:  Solving for Uy, Initial residual = 0.000118433, Final residual = 8.71129e-06, No Iterations 3
smoothSolver:  Solving for Uz, Initial residual = 1.84456e-06, Final residual = 8.20904e-07, No Iterations 1
GAMG:  Solving for p, Initial residual = 1.82672e-05, Final residual = 4.04466e-07, No Iterations 2
time step continuity errors : sum local = 7.95726e-06, global = -1.49537e-07, cumulative = -0.290507
smoothSolver:  Solving for omega, Initial residual = 1.18245e-06, Final residual = 5.31071e-07, No Iterations 1
smoothSolver:  Solving for k, Initial residual = 3.13126e-06, Final residual = 7.06342e-07, No Iterations 2
ExecutionTime = 127.25 s  ClockTime = 128 s

Time = 415

smoothSolver:  Solving for Ux, Initial residual = 0.000126048, Final residual = 9.48742e-06, No Iterations 3
smoothSolver:  Solving for Uy, Initial residual = 0.00011653, Final residual = 8.6169e-06, No Iterations 3
smoothSolver:  Solving for Uz, Initial residual = 1.82312e-06, Final residual = 8.11047e-07, No Iterations 1
GAMG:  Solving for p, Initial residual = 1.8103e-05, Final residual = 4.02728e-07, No Iterations 2
time step continuity errors : sum local = 7.923e-06, global = -1.49556e-07, cumulative = -0.290507
smoothSolver:  Solving for omega, Initial residual = 1.16458e-06, Final residual = 5.22854e-07, No Iterations 1
smoothSolver:  Solving for k, Initial residual = 3.08669e-06, Final residual = 6.95744e-07, No Iterations 2
ExecutionTime = 127.52 s  ClockTime = 128 s

Time = 416

smoothSolver:  Solving for Ux, Initial residual = 0.000124433, Final residual = 9.42337e-06, No Iterations 3
smoothSolver:  Solving for Uy, Initial residual = 0.000114646, Final residual = 8.53e-06, No Iterations 3
smoothSolver:  Solving for Uz, Initial residual = 1.80178e-06, Final residual = 8.01194e-07, No Iterations 1
GAMG:  Solving for p, Initial residual = 1.79173e-05, Final residual = 4.0006e-07, No Iterations 2
time step continuity errors : sum local = 7.87045e-06, global = -1.48225e-07, cumulative = -0.290507
smoothSolver:  Solving for omega, Initial residual = 1.14812e-06, Final residual = 5.1536e-07, No Iterations 1
smoothSolver:  Solving for k, Initial residual = 3.04272e-06, Final residual = 6.85441e-07, No Iterations 2
ExecutionTime = 127.82 s  ClockTime = 128 s

Time = 417

smoothSolver:  Solving for Ux, Initial residual = 0.000122803, Final residual = 9.35859e-06, No Iterations 3
smoothSolver:  Solving for Uy, Initial residual = 0.000112787, Final residual = 8.44743e-06, No Iterations 3
smoothSolver:  Solving for Uz, Initial residual = 1.78079e-06, Final residual = 7.91426e-07, No Iterations 1
GAMG:  Solving for p, Initial residual = 1.77265e-05, Final residual = 3.96445e-07, No Iterations 2
time step continuity errors : sum local = 7.79925e-06, global = -1.46346e-07, cumulative = -0.290507
smoothSolver:  Solving for omega, Initial residual = 1.13297e-06, Final residual = 5.08385e-07, No Iterations 1
smoothSolver:  Solving for k, Initial residual = 2.99947e-06, Final residual = 6.7551e-07, No Iterations 2
ExecutionTime = 128.08 s  ClockTime = 128 s

Time = 418

smoothSolver:  Solving for Ux, Initial residual = 0.000121109, Final residual = 9.29336e-06, No Iterations 3
smoothSolver:  Solving for Uy, Initial residual = 0.000110916, Final residual = 8.36955e-06, No Iterations 3
smoothSolver:  Solving for Uz, Initial residual = 1.75995e-06, Final residual = 7.81756e-07, No Iterations 1
GAMG:  Solving for p, Initial residual = 1.75357e-05, Final residual = 3.92e-07, No Iterations 2
time step continuity errors : sum local = 7.71173e-06, global = -1.42711e-07, cumulative = -0.290507
smoothSolver:  Solving for omega, Initial residual = 1.11896e-06, Final residual = 5.01938e-07, No Iterations 1
smoothSolver:  Solving for k, Initial residual = 2.95721e-06, Final residual = 6.65868e-07, No Iterations 2
ExecutionTime = 128.38 s  ClockTime = 129 s

Time = 419

smoothSolver:  Solving for Ux, Initial residual = 0.000119362, Final residual = 9.22429e-06, No Iterations 3
smoothSolver:  Solving for Uy, Initial residual = 0.000109042, Final residual = 8.29247e-06, No Iterations 3
smoothSolver:  Solving for Uz, Initial residual = 1.73931e-06, Final residual = 7.71959e-07, No Iterations 1
GAMG:  Solving for p, Initial residual = 1.73378e-05, Final residual = 3.87037e-07, No Iterations 2
time step continuity errors : sum local = 7.61403e-06, global = -1.37387e-07, cumulative = -0.290507
smoothSolver:  Solving for omega, Initial residual = 1.10619e-06, Final residual = 4.96068e-07, No Iterations 1
smoothSolver:  Solving for k, Initial residual = 2.91607e-06, Final residual = 6.5654e-07, No Iterations 2
ExecutionTime = 128.69 s  ClockTime = 129 s

Time = 420

smoothSolver:  Solving for Ux, Initial residual = 0.000117561, Final residual = 9.14866e-06, No Iterations 3
smoothSolver:  Solving for Uy, Initial residual = 0.000107156, Final residual = 8.21542e-06, No Iterations 3
smoothSolver:  Solving for Uz, Initial residual = 1.71879e-06, Final residual = 7.62232e-07, No Iterations 1
GAMG:  Solving for p, Initial residual = 1.7126e-05, Final residual = 3.81629e-07, No Iterations 2
time step continuity errors : sum local = 7.50755e-06, global = -1.32127e-07, cumulative = -0.290508
smoothSolver:  Solving for omega, Initial residual = 1.09442e-06, Final residual = 4.90712e-07, No Iterations 1
smoothSolver:  Solving for k, Initial residual = 2.87606e-06, Final residual = 6.47518e-07, No Iterations 2
ExecutionTime = 128.96 s  ClockTime = 129 s

Time = 421

smoothSolver:  Solving for Ux, Initial residual = 0.000115711, Final residual = 9.07045e-06, No Iterations 3
smoothSolver:  Solving for Uy, Initial residual = 0.000105279, Final residual = 8.13605e-06, No Iterations 3
smoothSolver:  Solving for Uz, Initial residual = 1.69829e-06, Final residual = 7.52604e-07, No Iterations 1
GAMG:  Solving for p, Initial residual = 1.6899e-05, Final residual = 3.75747e-07, No Iterations 2
time step continuity errors : sum local = 7.39179e-06, global = -1.275e-07, cumulative = -0.290508
smoothSolver:  Solving for omega, Initial residual = 1.08351e-06, Final residual = 4.85566e-07, No Iterations 1
smoothSolver:  Solving for k, Initial residual = 2.83709e-06, Final residual = 6.38769e-07, No Iterations 2
ExecutionTime = 129.26 s  ClockTime = 130 s

Time = 422

smoothSolver:  Solving for Ux, Initial residual = 0.000113807, Final residual = 8.99303e-06, No Iterations 3
smoothSolver:  Solving for Uy, Initial residual = 0.000103374, Final residual = 8.05578e-06, No Iterations 3
smoothSolver:  Solving for Uz, Initial residual = 1.6776e-06, Final residual = 7.43332e-07, No Iterations 1
GAMG:  Solving for p, Initial residual = 1.66639e-05, Final residual = 3.69406e-07, No Iterations 2
time step continuity errors : sum local = 7.26698e-06, global = -1.22682e-07, cumulative = -0.290508
smoothSolver:  Solving for omega, Initial residual = 1.07309e-06, Final residual = 4.80833e-07, No Iterations 1
smoothSolver:  Solving for k, Initial residual = 2.79905e-06, Final residual = 6.30311e-07, No Iterations 2
ExecutionTime = 129.57 s  ClockTime = 130 s

Time = 423

smoothSolver:  Solving for Ux, Initial residual = 0.000111896, Final residual = 8.91949e-06, No Iterations 3
smoothSolver:  Solving for Uy, Initial residual = 0.00010142, Final residual = 7.97369e-06, No Iterations 3
smoothSolver:  Solving for Uz, Initial residual = 1.65676e-06, Final residual = 7.34058e-07, No Iterations 1
GAMG:  Solving for p, Initial residual = 1.64143e-05, Final residual = 3.62696e-07, No Iterations 2
time step continuity errors : sum local = 7.13493e-06, global = -1.18487e-07, cumulative = -0.290508
smoothSolver:  Solving for omega, Initial residual = 1.0632e-06, Final residual = 4.76426e-07, No Iterations 1
smoothSolver:  Solving for k, Initial residual = 2.76215e-06, Final residual = 6.22149e-07, No Iterations 2
ExecutionTime = 129.88 s  ClockTime = 130 s

Time = 424

smoothSolver:  Solving for Ux, Initial residual = 0.000109965, Final residual = 8.85095e-06, No Iterations 3
smoothSolver:  Solving for Uy, Initial residual = 9.94366e-05, Final residual = 7.88759e-06, No Iterations 3
smoothSolver:  Solving for Uz, Initial residual = 1.63541e-06, Final residual = 7.2464e-07, No Iterations 1
GAMG:  Solving for p, Initial residual = 1.61569e-05, Final residual = 3.55492e-07, No Iterations 2
time step continuity errors : sum local = 6.99316e-06, global = -1.1547e-07, cumulative = -0.290508
smoothSolver:  Solving for omega, Initial residual = 1.05402e-06, Final residual = 4.72148e-07, No Iterations 1
smoothSolver:  Solving for k, Initial residual = 2.72653e-06, Final residual = 6.14203e-07, No Iterations 2
ExecutionTime = 130.21 s  ClockTime = 131 s

Time = 425

smoothSolver:  Solving for Ux, Initial residual = 0.000108005, Final residual = 8.77838e-06, No Iterations 3
smoothSolver:  Solving for Uy, Initial residual = 9.7444e-05, Final residual = 7.79696e-06, No Iterations 3
smoothSolver:  Solving for Uz, Initial residual = 1.6138e-06, Final residual = 7.15111e-07, No Iterations 1
GAMG:  Solving for p, Initial residual = 1.58902e-05, Final residual = 3.47916e-07, No Iterations 2
time step continuity errors : sum local = 6.84408e-06, global = -1.13261e-07, cumulative = -0.290508
smoothSolver:  Solving for omega, Initial residual = 1.04524e-06, Final residual = 4.68212e-07, No Iterations 1
smoothSolver:  Solving for k, Initial residual = 2.69182e-06, Final residual = 6.06497e-07, No Iterations 2
ExecutionTime = 130.61 s  ClockTime = 131 s

Time = 426

smoothSolver:  Solving for Ux, Initial residual = 0.000106037, Final residual = 8.70289e-06, No Iterations 3
smoothSolver:  Solving for Uy, Initial residual = 9.54536e-05, Final residual = 7.70754e-06, No Iterations 3
smoothSolver:  Solving for Uz, Initial residual = 1.59207e-06, Final residual = 7.05509e-07, No Iterations 1
GAMG:  Solving for p, Initial residual = 1.56133e-05, Final residual = 3.40437e-07, No Iterations 2
time step continuity errors : sum local = 6.69692e-06, global = -1.11115e-07, cumulative = -0.290508
smoothSolver:  Solving for omega, Initial residual = 1.03696e-06, Final residual = 4.64562e-07, No Iterations 1
smoothSolver:  Solving for k, Initial residual = 2.65795e-06, Final residual = 5.99023e-07, No Iterations 2
ExecutionTime = 131 s  ClockTime = 131 s

Time = 427

smoothSolver:  Solving for Ux, Initial residual = 0.00010408, Final residual = 8.62527e-06, No Iterations 3
smoothSolver:  Solving for Uy, Initial residual = 9.34657e-05, Final residual = 7.61493e-06, No Iterations 3
smoothSolver:  Solving for Uz, Initial residual = 1.57002e-06, Final residual = 6.96014e-07, No Iterations 1
GAMG:  Solving for p, Initial residual = 1.53288e-05, Final residual = 3.33425e-07, No Iterations 2
time step continuity errors : sum local = 6.55894e-06, global = -1.08891e-07, cumulative = -0.290508
smoothSolver:  Solving for omega, Initial residual = 1.02927e-06, Final residual = 4.61156e-07, No Iterations 1
smoothSolver:  Solving for k, Initial residual = 2.62498e-06, Final residual = 5.91757e-07, No Iterations 2
ExecutionTime = 131.31 s  ClockTime = 132 s

Time = 428

smoothSolver:  Solving for Ux, Initial residual = 0.000102132, Final residual = 8.55045e-06, No Iterations 3
smoothSolver:  Solving for Uy, Initial residual = 9.14795e-05, Final residual = 7.52171e-06, No Iterations 3
smoothSolver:  Solving for Uz, Initial residual = 1.54775e-06, Final residual = 6.8663e-07, No Iterations 1
GAMG:  Solving for p, Initial residual = 1.50371e-05, Final residual = 3.27389e-07, No Iterations 2
time step continuity errors : sum local = 6.44018e-06, global = -1.06609e-07, cumulative = -0.290508
smoothSolver:  Solving for omega, Initial residual = 1.02207e-06, Final residual = 4.5809e-07, No Iterations 1
smoothSolver:  Solving for k, Initial residual = 2.59303e-06, Final residual = 5.84587e-07, No Iterations 2
ExecutionTime = 131.6 s  ClockTime = 132 s

Time = 429

smoothSolver:  Solving for Ux, Initial residual = 0.000100202, Final residual = 8.47247e-06, No Iterations 3
smoothSolver:  Solving for Uy, Initial residual = 8.95211e-05, Final residual = 7.42694e-06, No Iterations 3
smoothSolver:  Solving for Uz, Initial residual = 1.52553e-06, Final residual = 6.77343e-07, No Iterations 1
GAMG:  Solving for p, Initial residual = 1.47463e-05, Final residual = 3.22604e-07, No Iterations 2
time step continuity errors : sum local = 6.34602e-06, global = -1.02763e-07, cumulative = -0.290509
smoothSolver:  Solving for omega, Initial residual = 1.0152e-06, Final residual = 4.55263e-07, No Iterations 1
smoothSolver:  Solving for k, Initial residual = 2.56163e-06, Final residual = 5.77541e-07, No Iterations 2
ExecutionTime = 131.91 s  ClockTime = 132 s

Time = 430

smoothSolver:  Solving for Ux, Initial residual = 9.82686e-05, Final residual = 8.39224e-06, No Iterations 3
smoothSolver:  Solving for Uy, Initial residual = 8.75976e-05, Final residual = 7.33254e-06, No Iterations 3
smoothSolver:  Solving for Uz, Initial residual = 1.50327e-06, Final residual = 6.68287e-07, No Iterations 1
GAMG:  Solving for p, Initial residual = 1.44534e-05, Final residual = 9.98373e-07, No Iterations 1
time step continuity errors : sum local = 1.96392e-05, global = 2.19163e-06, cumulative = -0.290506
smoothSolver:  Solving for omega, Initial residual = 1.00639e-06, Final residual = 4.52002e-07, No Iterations 1
smoothSolver:  Solving for k, Initial residual = 2.52993e-06, Final residual = 5.70556e-07, No Iterations 2
ExecutionTime = 132.18 s  ClockTime = 133 s


SIMPLE solution converged in 430 iterations

End

Finalising parallel run
