/*---------------------------------------------------------------------------*\
| =========                 |                                                 |
| \\      /  F ield         | OpenFOAM: The Open Source CFD Toolbox           |
|  \\    /   O peration     | Version:  2412                                  |
|   \\  /    A nd           | Website:  www.openfoam.com                      |
|    \\/     M anipulation  |                                                 |
\*---------------------------------------------------------------------------*/
Build  : _e5c6ccc3-20250814 OPENFOAM=2412 patch=250814 version=2412
Arch   : "LSB;label=32;scalar=64"
Exec   : rhoCentralFoam -parallel
Date   : Jan 06 2026
Time   : 20:24:23
Host   : LAPTOP-FVD4ED85
PID    : 9448
I/O    : uncollated
Case   : /home/ericy/Rocket_CFD_ML/openfoam/combined_test_workflow
nProcs : 4
Hosts  :
(
    (LAPTOP-FVD4ED85 4)
)
Pstream initialized with:
    floatTransfer      : false
    maxCommsSize       : 0
    nProcsSimpleSum    : 0
    nonBlockingExchange: 0 (tuning: 0)
    exchange algorithm : 0
    commsType          : nonBlocking
    polling iterations : 0
trapFpe: Floating point exception trapping enabled (FOAM_SIGFPE).
fileModificationChecking : Monitoring run-time modified files using timeStampMaster (fileModificationSkew 5, maxFileModificationPolls 20)
allowSystemOperations : Allowing user-supplied system call operations

// * * * * * * * * * * * * * * * * * * * * * * * * * * * * * * * * * * * * * //
Create time

Create mesh for time = 0

Reading thermophysical properties

Selecting thermodynamics package 
{
    type            hePsiThermo;
    mixture         pureMixture;
    transport       sutherland;
    thermo          hConst;
    equationOfState perfectGas;
    specie          specie;
    energy          sensibleInternalEnergy;
}

Reading field U

Creating turbulence model

Selecting turbulence model type RAS
Selecting RAS turbulence model kOmegaSST
Selecting patchDistMethod meshWave
RAS
{
    model           kOmegaSST;
    turbulence      on;
    printCoeffs     on;
    alphaK1         0.85;
    alphaK2         1;
    alphaOmega1     0.5;
    alphaOmega2     0.856;
    gamma1          0.555556;
    gamma2          0.44;
    beta1           0.075;
    beta2           0.0828;
    betaStar        0.09;
    a1              0.31;
    b1              1;
    c1              10;
    F3              false;
    decayControl    false;
    kInf            0;
    omegaInf        0;
}

Creating finite volume options from "system/fvOptions"

Selecting finite volume options type limitTemperature
    Source: limitT
    - selecting all cells
    - selected 124215 cell(s) with volume 324964

Starting time loop

forceCoeffs forces:
    p: p
    U: U
    rho: rho
    Not including porosity effects
    magUInf: 500
    lRef   : 1
    Aref   : 3.14
    rhoInf : 1.225
    Selecting all coefficients
    - Drag force: Cd
    - Drag force front: Cd(f)
    - Drag force rear: Cd(r)
    - Lift force: Cl
    - Lift force front: Cl(f)
    - Lift force rear: Cl(r)
    - Pitch moment: CmPitch
    - Roll moment: CmRoll
    - Yaw moment: CmYaw
    - Side force: Cs
    - Side force front: Cs(f)
    - Side force rear: Cs(r)


deltaT = 1.20005e-06
Mean and max Courant Numbers = 0.000371691 0.0233406
Time = 1.20005e-06

diagonal:  Solving for rho, Initial residual = 0, Final residual = 0, No Iterations 0
diagonal:  Solving for rhoUx, Initial residual = 0, Final residual = 0, No Iterations 0
diagonal:  Solving for rhoUy, Initial residual = 0, Final residual = 0, No Iterations 0
diagonal:  Solving for rhoUz, Initial residual = 0, Final residual = 0, No Iterations 0
smoothSolver:  Solving for Ux, Initial residual = 1, Final residual = 4.94271e-05, No Iterations 1
smoothSolver:  Solving for Uy, Initial residual = 1, Final residual = 4.91656e-05, No Iterations 1
smoothSolver:  Solving for Uz, Initial residual = 0.999992, Final residual = 5.48308e-05, No Iterations 1
diagonal:  Solving for rhoE, Initial residual = 0, Final residual = 0, No Iterations 0
smoothSolver:  Solving for e, Initial residual = 3.92599e-08, Final residual = 3.92599e-08, No Iterations 0
smoothSolver:  Solving for omega, Initial residual = 2.92975e-07, Final residual = 2.92975e-07, No Iterations 0
smoothSolver:  Solving for k, Initial residual = 1, Final residual = 0.000135748, No Iterations 1
ExecutionTime = 0.37 s  ClockTime = 1 s

--> FOAM Warning : 
    From virtual bool Foam::functionObjects::fieldSelection::checkSelection()
    in file functionObjects/fieldSelections/fieldSelection/fieldSelection.C at line 179
    Field p not found
--> FOAM Warning : 
    From virtual bool Foam::functionObjects::solverFieldSelection::updateSelection()
    in file functionObjects/fieldSelections/solverFieldSelection/solverFieldSelection.C at line 82
    Valid solver fields are: 7(U e k omega rho rhoE rhoU)deltaT = 1.44013e-06
Mean and max Courant Numbers = 0.00044605 0.0280288
Time = 2.64017e-06

diagonal:  Solving for rho, Initial residual = 0, Final residual = 0, No Iterations 0
diagonal:  Solving for rhoUx, Initial residual = 0, Final residual = 0, No Iterations 0
diagonal:  Solving for rhoUy, Initial residual = 0, Final residual = 0, No Iterations 0
diagonal:  Solving for rhoUz, Initial residual = 0, Final residual = 0, No Iterations 0
smoothSolver:  Solving for Ux, Initial residual = 9.45712e-06, Final residual = 1.3744e-10, No Iterations 1
smoothSolver:  Solving for Uy, Initial residual = 5.31497e-05, Final residual = 7.73915e-10, No Iterations 1
smoothSolver:  Solving for Uz, Initial residual = 1.23092e-05, Final residual = 1.70752e-10, No Iterations 1
diagonal:  Solving for rhoE, Initial residual = 0, Final residual = 0, No Iterations 0
smoothSolver:  Solving for e, Initial residual = 1.90279e-08, Final residual = 1.90279e-08, No Iterations 0
--> FOAM Warning : 
    From virtual void Foam::fv::option::checkApplied() const
    in file cfdTools/general/fvOptions/fvOption.C at line 137
    Source limitT defined for field e but never used
--> FOAM Warning : 
    From virtual void Foam::fv::option::checkApplied() const
    in file cfdTools/general/fvOptions/fvOption.C at line 137
    Source limitT defined for field e but never used
smoothSolver:  Solving for omega, Initial residual = 3.50866e-07, Final residual = 3.50866e-07, No Iterations 0
--> FOAM Warning : 
    From virtual void Foam::fv::option::checkApplied() const
    in file cfdTools/general/fvOptions/fvOption.C at line 137
    Source limitT defined for field e but never used
--> FOAM Warning : 
    From virtual void Foam::fv::option::checkApplied() const
    in file cfdTools/general/fvOptions/fvOption.C at line 137
    Source limitT defined for field e but never used
smoothSolver:  Solving for k, Initial residual = 0.102761, Final residual = 1.67244e-05, No Iterations 1
ExecutionTime = 0.62 s  ClockTime = 1 s

deltaT = 1.72815e-06
Mean and max Courant Numbers = 0.00053526 0.0336615
Time = 4.36833e-06

diagonal:  Solving for rho, Initial residual = 0, Final residual = 0, No Iterations 0
diagonal:  Solving for rhoUx, Initial residual = 0, Final residual = 0, No Iterations 0
diagonal:  Solving for rhoUy, Initial residual = 0, Final residual = 0, No Iterations 0
diagonal:  Solving for rhoUz, Initial residual = 0, Final residual = 0, No Iterations 0
smoothSolver:  Solving for Ux, Initial residual = 3.3569e-06, Final residual = 6.46896e-11, No Iterations 1
smoothSolver:  Solving for Uy, Initial residual = 1.84724e-05, Final residual = 3.56461e-10, No Iterations 1
smoothSolver:  Solving for Uz, Initial residual = 4.31866e-06, Final residual = 9.61689e-11, No Iterations 1
diagonal:  Solving for rhoE, Initial residual = 0, Final residual = 0, No Iterations 0
smoothSolver:  Solving for e, Initial residual = 2.30674e-08, Final residual = 2.30674e-08, No Iterations 0
smoothSolver:  Solving for omega, Initial residual = 4.21315e-07, Final residual = 4.21315e-07, No Iterations 0
smoothSolver:  Solving for k, Initial residual = 0.0541209, Final residual = 1.05697e-05, No Iterations 1
ExecutionTime = 0.84 s  ClockTime = 1 s

deltaT = 2.07378e-06
Mean and max Courant Numbers = 0.000642312 0.0404323
Time = 6.44211e-06

diagonal:  Solving for rho, Initial residual = 0, Final residual = 0, No Iterations 0
diagonal:  Solving for rhoUx, Initial residual = 0, Final residual = 0, No Iterations 0
diagonal:  Solving for rhoUy, Initial residual = 0, Final residual = 0, No Iterations 0
diagonal:  Solving for rhoUz, Initial residual = 0, Final residual = 0, No Iterations 0
smoothSolver:  Solving for Ux, Initial residual = 1.8747e-06, Final residual = 5.0537e-11, No Iterations 1
smoothSolver:  Solving for Uy, Initial residual = 1.00653e-05, Final residual = 2.71514e-10, No Iterations 1
smoothSolver:  Solving for Uz, Initial residual = 2.20902e-06, Final residual = 5.65216e-11, No Iterations 1
diagonal:  Solving for rhoE, Initial residual = 0, Final residual = 0, No Iterations 0
smoothSolver:  Solving for e, Initial residual = 2.79626e-08, Final residual = 2.79626e-08, No Iterations 0
smoothSolver:  Solving for omega, Initial residual = 5.06011e-07, Final residual = 5.06011e-07, No Iterations 0
smoothSolver:  Solving for k, Initial residual = 0.036412, Final residual = 8.53413e-06, No Iterations 1
ExecutionTime = 1.02 s  ClockTime = 1 s

deltaT = 2.48844e-06
Mean and max Courant Numbers = 0.000770743 0.0485716
Time = 8.93055e-06

diagonal:  Solving for rho, Initial residual = 0, Final residual = 0, No Iterations 0
diagonal:  Solving for rhoUx, Initial residual = 0, Final residual = 0, No Iterations 0
diagonal:  Solving for rhoUy, Initial residual = 0, Final residual = 0, No Iterations 0
diagonal:  Solving for rhoUz, Initial residual = 0, Final residual = 0, No Iterations 0
smoothSolver:  Solving for Ux, Initial residual = 1.3332e-06, Final residual = 4.78681e-11, No Iterations 1
smoothSolver:  Solving for Uy, Initial residual = 6.94692e-06, Final residual = 2.4929e-10, No Iterations 1
smoothSolver:  Solving for Uz, Initial residual = 1.33746e-06, Final residual = 3.00886e-11, No Iterations 1
diagonal:  Solving for rhoE, Initial residual = 0, Final residual = 0, No Iterations 0
smoothSolver:  Solving for e, Initial residual = 3.17777e-08, Final residual = 3.17777e-08, No Iterations 0
smoothSolver:  Solving for omega, Initial residual = 6.07818e-07, Final residual = 6.07818e-07, No Iterations 0
smoothSolver:  Solving for k, Initial residual = 0.0270944, Final residual = 7.62148e-06, No Iterations 1
ExecutionTime = 1.2 s  ClockTime = 2 s

deltaT = 2.98597e-06
Mean and max Courant Numbers = 0.000924846 0.0583611
Time = 1.19165e-05

diagonal:  Solving for rho, Initial residual = 0, Final residual = 0, No Iterations 0
diagonal:  Solving for rhoUx, Initial residual = 0, Final residual = 0, No Iterations 0
diagonal:  Solving for rhoUy, Initial residual = 0, Final residual = 0, No Iterations 0
diagonal:  Solving for rhoUz, Initial residual = 0, Final residual = 0, No Iterations 0
smoothSolver:  Solving for Ux, Initial residual = 1.11548e-06, Final residual = 4.9312e-11, No Iterations 1
smoothSolver:  Solving for Uy, Initial residual = 5.62241e-06, Final residual = 2.48479e-10, No Iterations 1
smoothSolver:  Solving for Uz, Initial residual = 8.92216e-07, Final residual = 8.92216e-07, No Iterations 0
diagonal:  Solving for rhoE, Initial residual = 0, Final residual = 0, No Iterations 0
smoothSolver:  Solving for e, Initial residual = 3.35622e-08, Final residual = 3.35622e-08, No Iterations 0
smoothSolver:  Solving for omega, Initial residual = 7.30302e-07, Final residual = 7.30302e-07, No Iterations 0
smoothSolver:  Solving for k, Initial residual = 0.0212694, Final residual = 7.18139e-06, No Iterations 1
ExecutionTime = 1.39 s  ClockTime = 2 s

deltaT = 3.49723e-06
Mean and max Courant Numbers = 0.0010832 0.0684624
Time = 1.54137e-05

diagonal:  Solving for rho, Initial residual = 0, Final residual = 0, No Iterations 0
diagonal:  Solving for rhoUx, Initial residual = 0, Final residual = 0, No Iterations 0
diagonal:  Solving for rhoUy, Initial residual = 0, Final residual = 0, No Iterations 0
diagonal:  Solving for rhoUz, Initial residual = 0, Final residual = 0, No Iterations 0
smoothSolver:  Solving for Ux, Initial residual = 1.0228e-06, Final residual = 5.50683e-11, No Iterations 1
smoothSolver:  Solving for Uy, Initial residual = 4.96735e-06, Final residual = 2.67089e-10, No Iterations 1
smoothSolver:  Solving for Uz, Initial residual = 6.28764e-07, Final residual = 6.28764e-07, No Iterations 0
diagonal:  Solving for rhoE, Initial residual = 0, Final residual = 0, No Iterations 0
smoothSolver:  Solving for e, Initial residual = 3.48638e-08, Final residual = 3.48638e-08, No Iterations 0
smoothSolver:  Solving for omega, Initial residual = 8.56843e-07, Final residual = 8.56843e-07, No Iterations 0
smoothSolver:  Solving for k, Initial residual = 0.0168421, Final residual = 6.66335e-06, No Iterations 1
ExecutionTime = 1.57 s  ClockTime = 2 s

deltaT = 4.00826e-06
Mean and max Courant Numbers = 0.00124148 0.0786123
Time = 1.9422e-05

diagonal:  Solving for rho, Initial residual = 0, Final residual = 0, No Iterations 0
diagonal:  Solving for rhoUx, Initial residual = 0, Final residual = 0, No Iterations 0
diagonal:  Solving for rhoUy, Initial residual = 0, Final residual = 0, No Iterations 0
diagonal:  Solving for rhoUz, Initial residual = 0, Final residual = 0, No Iterations 0
smoothSolver:  Solving for Ux, Initial residual = 9.77045e-07, Final residual = 9.77045e-07, No Iterations 0
smoothSolver:  Solving for Uy, Initial residual = 4.55181e-06, Final residual = 2.84473e-10, No Iterations 1
smoothSolver:  Solving for Uz, Initial residual = 4.57774e-07, Final residual = 4.57774e-07, No Iterations 0
diagonal:  Solving for rhoE, Initial residual = 0, Final residual = 0, No Iterations 0
smoothSolver:  Solving for e, Initial residual = 3.45698e-08, Final residual = 3.45698e-08, No Iterations 0
smoothSolver:  Solving for omega, Initial residual = 9.84123e-07, Final residual = 9.84123e-07, No Iterations 0
smoothSolver:  Solving for k, Initial residual = 0.0134449, Final residual = 6.101e-06, No Iterations 1
ExecutionTime = 1.78 s  ClockTime = 2 s

deltaT = 4.51814e-06
Mean and max Courant Numbers = 0.00139941 0.0887996
Time = 2.39402e-05

diagonal:  Solving for rho, Initial residual = 0, Final residual = 0, No Iterations 0
diagonal:  Solving for rhoUx, Initial residual = 0, Final residual = 0, No Iterations 0
diagonal:  Solving for rhoUy, Initial residual = 0, Final residual = 0, No Iterations 0
diagonal:  Solving for rhoUz, Initial residual = 0, Final residual = 0, No Iterations 0
smoothSolver:  Solving for Ux, Initial residual = 9.24943e-07, Final residual = 9.24943e-07, No Iterations 0
smoothSolver:  Solving for Uy, Initial residual = 4.12293e-06, Final residual = 2.88255e-10, No Iterations 1
smoothSolver:  Solving for Uz, Initial residual = 3.43193e-07, Final residual = 3.43193e-07, No Iterations 0
diagonal:  Solving for rhoE, Initial residual = 0, Final residual = 0, No Iterations 0
smoothSolver:  Solving for e, Initial residual = 3.29421e-08, Final residual = 3.29421e-08, No Iterations 0
smoothSolver:  Solving for omega, Initial residual = 1.112e-06, Final residual = 7.57503e-10, No Iterations 1
smoothSolver:  Solving for k, Initial residual = 0.0108532, Final residual = 5.55662e-06, No Iterations 1
ExecutionTime = 1.96 s  ClockTime = 2 s

deltaT = 5.02572e-06
Mean and max Courant Numbers = 0.00155662 0.0990093
Time = 2.89659e-05

diagonal:  Solving for rho, Initial residual = 0, Final residual = 0, No Iterations 0
diagonal:  Solving for rhoUx, Initial residual = 0, Final residual = 0, No Iterations 0
diagonal:  Solving for rhoUy, Initial residual = 0, Final residual = 0, No Iterations 0
diagonal:  Solving for rhoUz, Initial residual = 0, Final residual = 0, No Iterations 0
smoothSolver:  Solving for Ux, Initial residual = 8.67923e-07, Final residual = 8.67923e-07, No Iterations 0
smoothSolver:  Solving for Uy, Initial residual = 3.68883e-06, Final residual = 2.76715e-10, No Iterations 1
smoothSolver:  Solving for Uz, Initial residual = 2.6393e-07, Final residual = 2.6393e-07, No Iterations 0
diagonal:  Solving for rhoE, Initial residual = 0, Final residual = 0, No Iterations 0
smoothSolver:  Solving for e, Initial residual = 2.98767e-08, Final residual = 2.98767e-08, No Iterations 0
smoothSolver:  Solving for omega, Initial residual = 1.23808e-06, Final residual = 9.56526e-10, No Iterations 1
smoothSolver:  Solving for k, Initial residual = 0.00886844, Final residual = 5.05605e-06, No Iterations 1
ExecutionTime = 2.18 s  ClockTime = 3 s

deltaT = 5.0769e-06
Mean and max Courant Numbers = 0.00157247 0.100307
Time = 3.40428e-05

diagonal:  Solving for rho, Initial residual = 0, Final residual = 0, No Iterations 0
diagonal:  Solving for rhoUx, Initial residual = 0, Final residual = 0, No Iterations 0
diagonal:  Solving for rhoUy, Initial residual = 0, Final residual = 0, No Iterations 0
diagonal:  Solving for rhoUz, Initial residual = 0, Final residual = 0, No Iterations 0
smoothSolver:  Solving for Ux, Initial residual = 7.19573e-07, Final residual = 7.19573e-07, No Iterations 0
smoothSolver:  Solving for Uy, Initial residual = 2.92061e-06, Final residual = 2.07502e-10, No Iterations 1
smoothSolver:  Solving for Uz, Initial residual = 1.95044e-07, Final residual = 1.95044e-07, No Iterations 0
diagonal:  Solving for rhoE, Initial residual = 0, Final residual = 0, No Iterations 0
smoothSolver:  Solving for e, Initial residual = 2.49619e-08, Final residual = 2.49619e-08, No Iterations 0
smoothSolver:  Solving for omega, Initial residual = 1.25195e-06, Final residual = 9.96457e-10, No Iterations 1
smoothSolver:  Solving for k, Initial residual = 0.00673814, Final residual = 3.88611e-06, No Iterations 1
ExecutionTime = 2.37 s  ClockTime = 3 s

deltaT = 5.06143e-06
Mean and max Courant Numbers = 0.00156768 0.100298
Time = 3.91042e-05

diagonal:  Solving for rho, Initial residual = 0, Final residual = 0, No Iterations 0
diagonal:  Solving for rhoUx, Initial residual = 0, Final residual = 0, No Iterations 0
diagonal:  Solving for rhoUy, Initial residual = 0, Final residual = 0, No Iterations 0
diagonal:  Solving for rhoUz, Initial residual = 0, Final residual = 0, No Iterations 0
smoothSolver:  Solving for Ux, Initial residual = 6.02388e-07, Final residual = 6.02388e-07, No Iterations 0
smoothSolver:  Solving for Uy, Initial residual = 2.3382e-06, Final residual = 1.60793e-10, No Iterations 1
smoothSolver:  Solving for Uz, Initial residual = 1.48778e-07, Final residual = 1.48778e-07, No Iterations 0
diagonal:  Solving for rhoE, Initial residual = 0, Final residual = 0, No Iterations 0
smoothSolver:  Solving for e, Initial residual = 2.13304e-08, Final residual = 2.13304e-08, No Iterations 0
smoothSolver:  Solving for omega, Initial residual = 1.24926e-06, Final residual = 1.01045e-09, No Iterations 1
smoothSolver:  Solving for k, Initial residual = 0.00526375, Final residual = 3.03097e-06, No Iterations 1
ExecutionTime = 2.54 s  ClockTime = 3 s

deltaT = 5.04605e-06
Mean and max Courant Numbers = 0.00156292 0.10029
Time = 4.41503e-05

diagonal:  Solving for rho, Initial residual = 0, Final residual = 0, No Iterations 0
diagonal:  Solving for rhoUx, Initial residual = 0, Final residual = 0, No Iterations 0
diagonal:  Solving for rhoUy, Initial residual = 0, Final residual = 0, No Iterations 0
diagonal:  Solving for rhoUz, Initial residual = 0, Final residual = 0, No Iterations 0
smoothSolver:  Solving for Ux, Initial residual = 5.00153e-07, Final residual = 5.00153e-07, No Iterations 0
smoothSolver:  Solving for Uy, Initial residual = 1.86369e-06, Final residual = 1.21812e-10, No Iterations 1
smoothSolver:  Solving for Uz, Initial residual = 1.17337e-07, Final residual = 1.17337e-07, No Iterations 0
diagonal:  Solving for rhoE, Initial residual = 0, Final residual = 0, No Iterations 0
smoothSolver:  Solving for e, Initial residual = 1.86967e-08, Final residual = 1.86967e-08, No Iterations 0
smoothSolver:  Solving for omega, Initial residual = 1.24643e-06, Final residual = 1.02401e-09, No Iterations 1
smoothSolver:  Solving for k, Initial residual = 0.00424967, Final residual = 2.44348e-06, No Iterations 1
ExecutionTime = 2.74 s  ClockTime = 3 s

deltaT = 5.03075e-06
Mean and max Courant Numbers = 0.00155818 0.100282
Time = 4.9181e-05

diagonal:  Solving for rho, Initial residual = 0, Final residual = 0, No Iterations 0
diagonal:  Solving for rhoUx, Initial residual = 0, Final residual = 0, No Iterations 0
diagonal:  Solving for rhoUy, Initial residual = 0, Final residual = 0, No Iterations 0
diagonal:  Solving for rhoUz, Initial residual = 0, Final residual = 0, No Iterations 0
smoothSolver:  Solving for Ux, Initial residual = 4.19837e-07, Final residual = 4.19837e-07, No Iterations 0
smoothSolver:  Solving for Uy, Initial residual = 1.50586e-06, Final residual = 9.57196e-11, No Iterations 1
smoothSolver:  Solving for Uz, Initial residual = 9.49667e-08, Final residual = 9.49667e-08, No Iterations 0
diagonal:  Solving for rhoE, Initial residual = 0, Final residual = 0, No Iterations 0
smoothSolver:  Solving for e, Initial residual = 1.67907e-08, Final residual = 1.67907e-08, No Iterations 0
smoothSolver:  Solving for omega, Initial residual = 1.24347e-06, Final residual = 1.03715e-09, No Iterations 1
smoothSolver:  Solving for k, Initial residual = 0.0035182, Final residual = 2.02028e-06, No Iterations 1
ExecutionTime = 2.93 s  ClockTime = 3 s

deltaT = 5.01553e-06
Mean and max Courant Numbers = 0.00155347 0.100274
Time = 5.41965e-05

diagonal:  Solving for rho, Initial residual = 0, Final residual = 0, No Iterations 0
diagonal:  Solving for rhoUx, Initial residual = 0, Final residual = 0, No Iterations 0
diagonal:  Solving for rhoUy, Initial residual = 0, Final residual = 0, No Iterations 0
diagonal:  Solving for rhoUz, Initial residual = 0, Final residual = 0, No Iterations 0
smoothSolver:  Solving for Ux, Initial residual = 3.58349e-07, Final residual = 3.58349e-07, No Iterations 0
smoothSolver:  Solving for Uy, Initial residual = 1.23979e-06, Final residual = 7.86235e-11, No Iterations 1
smoothSolver:  Solving for Uz, Initial residual = 7.84647e-08, Final residual = 7.84647e-08, No Iterations 0
diagonal:  Solving for rhoE, Initial residual = 0, Final residual = 0, No Iterations 0
smoothSolver:  Solving for e, Initial residual = 1.52298e-08, Final residual = 1.52298e-08, No Iterations 0
smoothSolver:  Solving for omega, Initial residual = 1.24037e-06, Final residual = 1.0499e-09, No Iterations 1
smoothSolver:  Solving for k, Initial residual = 0.00297077, Final residual = 1.70385e-06, No Iterations 1
ExecutionTime = 3.12 s  ClockTime = 4 s

deltaT = 5.00292e-06
Mean and max Courant Numbers = 0.00154956 0.100316
Time = 5.91995e-05

diagonal:  Solving for rho, Initial residual = 0, Final residual = 0, No Iterations 0
diagonal:  Solving for rhoUx, Initial residual = 0, Final residual = 0, No Iterations 0
diagonal:  Solving for rhoUy, Initial residual = 0, Final residual = 0, No Iterations 0
diagonal:  Solving for rhoUz, Initial residual = 0, Final residual = 0, No Iterations 0
smoothSolver:  Solving for Ux, Initial residual = 3.08304e-07, Final residual = 3.08304e-07, No Iterations 0
smoothSolver:  Solving for Uy, Initial residual = 1.03216e-06, Final residual = 6.58596e-11, No Iterations 1
smoothSolver:  Solving for Uz, Initial residual = 6.59173e-08, Final residual = 6.59173e-08, No Iterations 0
diagonal:  Solving for rhoE, Initial residual = 0, Final residual = 0, No Iterations 0
smoothSolver:  Solving for e, Initial residual = 1.38984e-08, Final residual = 1.38984e-08, No Iterations 0
smoothSolver:  Solving for omega, Initial residual = 1.23778e-06, Final residual = 1.06339e-09, No Iterations 1
smoothSolver:  Solving for k, Initial residual = 0.00255008, Final residual = 1.46157e-06, No Iterations 1
ExecutionTime = 3.33 s  ClockTime = 4 s

deltaT = 4.98786e-06
Mean and max Courant Numbers = 0.0015449 0.100304
Time = 6.41873e-05

diagonal:  Solving for rho, Initial residual = 0, Final residual = 0, No Iterations 0
diagonal:  Solving for rhoUx, Initial residual = 0, Final residual = 0, No Iterations 0
diagonal:  Solving for rhoUy, Initial residual = 0, Final residual = 0, No Iterations 0
diagonal:  Solving for rhoUz, Initial residual = 0, Final residual = 0, No Iterations 0
smoothSolver:  Solving for Ux, Initial residual = 2.72467e-07, Final residual = 2.72467e-07, No Iterations 0
smoothSolver:  Solving for Uy, Initial residual = 8.84492e-07, Final residual = 8.84492e-07, No Iterations 0
smoothSolver:  Solving for Uz, Initial residual = 5.61053e-08, Final residual = 5.61053e-08, No Iterations 0
diagonal:  Solving for rhoE, Initial residual = 0, Final residual = 0, No Iterations 0
smoothSolver:  Solving for e, Initial residual = 1.29023e-08, Final residual = 1.29023e-08, No Iterations 0
smoothSolver:  Solving for omega, Initial residual = 1.23443e-06, Final residual = 1.07544e-09, No Iterations 1
smoothSolver:  Solving for k, Initial residual = 0.00221658, Final residual = 1.26889e-06, No Iterations 1
ExecutionTime = 3.51 s  ClockTime = 4 s

deltaT = 4.97288e-06
Mean and max Courant Numbers = 0.00154026 0.100289
Time = 6.91602e-05

diagonal:  Solving for rho, Initial residual = 0, Final residual = 0, No Iterations 0
diagonal:  Solving for rhoUx, Initial residual = 0, Final residual = 0, No Iterations 0
diagonal:  Solving for rhoUy, Initial residual = 0, Final residual = 0, No Iterations 0
diagonal:  Solving for rhoUz, Initial residual = 0, Final residual = 0, No Iterations 0
smoothSolver:  Solving for Ux, Initial residual = 2.4308e-07, Final residual = 2.4308e-07, No Iterations 0
smoothSolver:  Solving for Uy, Initial residual = 7.6736e-07, Final residual = 7.6736e-07, No Iterations 0
smoothSolver:  Solving for Uz, Initial residual = 4.83001e-08, Final residual = 4.83001e-08, No Iterations 0
diagonal:  Solving for rhoE, Initial residual = 0, Final residual = 0, No Iterations 0
smoothSolver:  Solving for e, Initial residual = 1.21533e-08, Final residual = 1.21533e-08, No Iterations 0
smoothSolver:  Solving for omega, Initial residual = 1.23097e-06, Final residual = 1.08711e-09, No Iterations 1
smoothSolver:  Solving for k, Initial residual = 0.00194795, Final residual = 1.11377e-06, No Iterations 1
ExecutionTime = 3.69 s  ClockTime = 4 s

deltaT = 4.95798e-06
Mean and max Courant Numbers = 0.00153564 0.10027
Time = 7.41182e-05

diagonal:  Solving for rho, Initial residual = 0, Final residual = 0, No Iterations 0
diagonal:  Solving for rhoUx, Initial residual = 0, Final residual = 0, No Iterations 0
diagonal:  Solving for rhoUy, Initial residual = 0, Final residual = 0, No Iterations 0
diagonal:  Solving for rhoUz, Initial residual = 0, Final residual = 0, No Iterations 0
smoothSolver:  Solving for Ux, Initial residual = 2.19844e-07, Final residual = 2.19844e-07, No Iterations 0
smoothSolver:  Solving for Uy, Initial residual = 6.76304e-07, Final residual = 6.76304e-07, No Iterations 0
smoothSolver:  Solving for Uz, Initial residual = 4.19953e-08, Final residual = 4.19953e-08, No Iterations 0
diagonal:  Solving for rhoE, Initial residual = 0, Final residual = 0, No Iterations 0
smoothSolver:  Solving for e, Initial residual = 1.16144e-08, Final residual = 1.16144e-08, No Iterations 0
smoothSolver:  Solving for omega, Initial residual = 1.22739e-06, Final residual = 1.09842e-09, No Iterations 1
smoothSolver:  Solving for k, Initial residual = 0.00172788, Final residual = 9.86775e-07, No Iterations 1
ExecutionTime = 3.89 s  ClockTime = 4 s

deltaT = 4.94563e-06
Mean and max Courant Numbers = 0.00153182 0.100297
Time = 7.90638e-05

diagonal:  Solving for rho, Initial residual = 0, Final residual = 0, No Iterations 0
diagonal:  Solving for rhoUx, Initial residual = 0, Final residual = 0, No Iterations 0
diagonal:  Solving for rhoUy, Initial residual = 0, Final residual = 0, No Iterations 0
diagonal:  Solving for rhoUz, Initial residual = 0, Final residual = 0, No Iterations 0
smoothSolver:  Solving for Ux, Initial residual = 2.0153e-07, Final residual = 2.0153e-07, No Iterations 0
smoothSolver:  Solving for Uy, Initial residual = 6.04863e-07, Final residual = 6.04863e-07, No Iterations 0
smoothSolver:  Solving for Uz, Initial residual = 3.68422e-08, Final residual = 3.68422e-08, No Iterations 0
diagonal:  Solving for rhoE, Initial residual = 0, Final residual = 0, No Iterations 0
smoothSolver:  Solving for e, Initial residual = 1.12309e-08, Final residual = 1.12309e-08, No Iterations 0
smoothSolver:  Solving for omega, Initial residual = 1.22432e-06, Final residual = 1.11057e-09, No Iterations 1
smoothSolver:  Solving for k, Initial residual = 0.00154572, Final residual = 8.82156e-07, No Iterations 1
ExecutionTime = 4.06 s  ClockTime = 4 s

deltaT = 4.93088e-06
Mean and max Courant Numbers = 0.00152725 0.100268
Time = 8.39947e-05

diagonal:  Solving for rho, Initial residual = 0, Final residual = 0, No Iterations 0
diagonal:  Solving for rhoUx, Initial residual = 0, Final residual = 0, No Iterations 0
diagonal:  Solving for rhoUy, Initial residual = 0, Final residual = 0, No Iterations 0
diagonal:  Solving for rhoUz, Initial residual = 0, Final residual = 0, No Iterations 0
smoothSolver:  Solving for Ux, Initial residual = 1.86695e-07, Final residual = 1.86695e-07, No Iterations 0
smoothSolver:  Solving for Uy, Initial residual = 5.47971e-07, Final residual = 5.47971e-07, No Iterations 0
smoothSolver:  Solving for Uz, Initial residual = 3.2542e-08, Final residual = 3.2542e-08, No Iterations 0
diagonal:  Solving for rhoE, Initial residual = 0, Final residual = 0, No Iterations 0
smoothSolver:  Solving for e, Initial residual = 1.09364e-08, Final residual = 1.09364e-08, No Iterations 0
smoothSolver:  Solving for omega, Initial residual = 1.22055e-06, Final residual = 1.12142e-09, No Iterations 1
smoothSolver:  Solving for k, Initial residual = 0.00139159, Final residual = 7.93326e-07, No Iterations 1
ExecutionTime = 4.24 s  ClockTime = 5 s

deltaT = 4.91865e-06
Mean and max Courant Numbers = 0.00152346 0.100283
Time = 8.89133e-05

diagonal:  Solving for rho, Initial residual = 0, Final residual = 0, No Iterations 0
diagonal:  Solving for rhoUx, Initial residual = 0, Final residual = 0, No Iterations 0
diagonal:  Solving for rhoUy, Initial residual = 0, Final residual = 0, No Iterations 0
diagonal:  Solving for rhoUz, Initial residual = 0, Final residual = 0, No Iterations 0
smoothSolver:  Solving for Ux, Initial residual = 1.74379e-07, Final residual = 1.74379e-07, No Iterations 0
smoothSolver:  Solving for Uy, Initial residual = 5.01123e-07, Final residual = 5.01123e-07, No Iterations 0
smoothSolver:  Solving for Uz, Initial residual = 2.89372e-08, Final residual = 2.89372e-08, No Iterations 0
diagonal:  Solving for rhoE, Initial residual = 0, Final residual = 0, No Iterations 0
smoothSolver:  Solving for e, Initial residual = 1.07258e-08, Final residual = 1.07258e-08, No Iterations 0
smoothSolver:  Solving for omega, Initial residual = 1.21729e-06, Final residual = 1.13319e-09, No Iterations 1
smoothSolver:  Solving for k, Initial residual = 0.00126105, Final residual = 7.18525e-07, No Iterations 1
ExecutionTime = 4.42 s  ClockTime = 5 s

deltaT = 4.90405e-06
Mean and max Courant Numbers = 0.00151894 0.100303
Time = 9.38174e-05

diagonal:  Solving for rho, Initial residual = 0, Final residual = 0, No Iterations 0
diagonal:  Solving for rhoUx, Initial residual = 0, Final residual = 0, No Iterations 0
diagonal:  Solving for rhoUy, Initial residual = 0, Final residual = 0, No Iterations 0
diagonal:  Solving for rhoUz, Initial residual = 0, Final residual = 0, No Iterations 0
smoothSolver:  Solving for Ux, Initial residual = 1.63629e-07, Final residual = 1.63629e-07, No Iterations 0
smoothSolver:  Solving for Uy, Initial residual = 4.61026e-07, Final residual = 4.61026e-07, No Iterations 0
smoothSolver:  Solving for Uz, Initial residual = 2.59889e-08, Final residual = 2.59889e-08, No Iterations 0
diagonal:  Solving for rhoE, Initial residual = 0, Final residual = 0, No Iterations 0
smoothSolver:  Solving for e, Initial residual = 1.04393e-08, Final residual = 1.04393e-08, No Iterations 0
smoothSolver:  Solving for omega, Initial residual = 1.2122e-06, Final residual = 1.14048e-09, No Iterations 1
smoothSolver:  Solving for k, Initial residual = 0.00114815, Final residual = 6.53628e-07, No Iterations 1
ExecutionTime = 4.6 s  ClockTime = 5 s

deltaT = 4.88953e-06
Mean and max Courant Numbers = 0.00151444 0.100465
Time = 9.87069e-05

diagonal:  Solving for rho, Initial residual = 0, Final residual = 0, No Iterations 0
diagonal:  Solving for rhoUx, Initial residual = 0, Final residual = 0, No Iterations 0
diagonal:  Solving for rhoUy, Initial residual = 0, Final residual = 0, No Iterations 0
diagonal:  Solving for rhoUz, Initial residual = 0, Final residual = 0, No Iterations 0
smoothSolver:  Solving for Ux, Initial residual = 1.53145e-07, Final residual = 1.53145e-07, No Iterations 0
smoothSolver:  Solving for Uy, Initial residual = 4.24316e-07, Final residual = 4.24316e-07, No Iterations 0
smoothSolver:  Solving for Uz, Initial residual = 2.35817e-08, Final residual = 2.35817e-08, No Iterations 0
diagonal:  Solving for rhoE, Initial residual = 0, Final residual = 0, No Iterations 0
smoothSolver:  Solving for e, Initial residual = 9.93475e-09, Final residual = 9.93475e-09, No Iterations 0
smoothSolver:  Solving for omega, Initial residual = 1.2069e-06, Final residual = 1.14735e-09, No Iterations 1
smoothSolver:  Solving for k, Initial residual = 0.00105203, Final residual = 5.98447e-07, No Iterations 1
ExecutionTime = 4.78 s  ClockTime = 5 s

deltaT = 4.86789e-06
Mean and max Courant Numbers = 0.00150774 0.10044
Time = 0.000103575

diagonal:  Solving for rho, Initial residual = 0, Final residual = 0, No Iterations 0
diagonal:  Solving for rhoUx, Initial residual = 0, Final residual = 0, No Iterations 0
diagonal:  Solving for rhoUy, Initial residual = 0, Final residual = 0, No Iterations 0
diagonal:  Solving for rhoUz, Initial residual = 0, Final residual = 0, No Iterations 0
smoothSolver:  Solving for Ux, Initial residual = 1.43285e-07, Final residual = 1.43285e-07, No Iterations 0
smoothSolver:  Solving for Uy, Initial residual = 3.91763e-07, Final residual = 3.91763e-07, No Iterations 0
smoothSolver:  Solving for Uz, Initial residual = 2.15352e-08, Final residual = 2.15352e-08, No Iterations 0
diagonal:  Solving for rhoE, Initial residual = 0, Final residual = 0, No Iterations 0
smoothSolver:  Solving for e, Initial residual = 9.44567e-09, Final residual = 9.44567e-09, No Iterations 0
smoothSolver:  Solving for omega, Initial residual = 1.20011e-06, Final residual = 1.15114e-09, No Iterations 1
smoothSolver:  Solving for k, Initial residual = 0.000968414, Final residual = 5.49763e-07, No Iterations 1
ExecutionTime = 4.96 s  ClockTime = 5 s

deltaT = 4.84644e-06
Mean and max Courant Numbers = 0.00150109 0.100378
Time = 0.000108421

diagonal:  Solving for rho, Initial residual = 0, Final residual = 0, No Iterations 0
diagonal:  Solving for rhoUx, Initial residual = 0, Final residual = 0, No Iterations 0
diagonal:  Solving for rhoUy, Initial residual = 0, Final residual = 0, No Iterations 0
diagonal:  Solving for rhoUz, Initial residual = 0, Final residual = 0, No Iterations 0
smoothSolver:  Solving for Ux, Initial residual = 1.32998e-07, Final residual = 1.32998e-07, No Iterations 0
smoothSolver:  Solving for Uy, Initial residual = 3.58937e-07, Final residual = 3.58937e-07, No Iterations 0
smoothSolver:  Solving for Uz, Initial residual = 1.98034e-08, Final residual = 1.98034e-08, No Iterations 0
diagonal:  Solving for rhoE, Initial residual = 0, Final residual = 0, No Iterations 0
smoothSolver:  Solving for e, Initial residual = 6.83243e-09, Final residual = 6.83243e-09, No Iterations 0
smoothSolver:  Solving for omega, Initial residual = 1.19364e-06, Final residual = 1.15498e-09, No Iterations 1
smoothSolver:  Solving for k, Initial residual = 0.000896092, Final residual = 5.07625e-07, No Iterations 1
ExecutionTime = 5.16 s  ClockTime = 6 s

deltaT = 4.82752e-06
Mean and max Courant Numbers = 0.00149523 0.100329
Time = 0.000113249

diagonal:  Solving for rho, Initial residual = 0, Final residual = 0, No Iterations 0
diagonal:  Solving for rhoUx, Initial residual = 0, Final residual = 0, No Iterations 0
diagonal:  Solving for rhoUy, Initial residual = 0, Final residual = 0, No Iterations 0
diagonal:  Solving for rhoUz, Initial residual = 0, Final residual = 0, No Iterations 0
smoothSolver:  Solving for Ux, Initial residual = 1.2493e-07, Final residual = 1.2493e-07, No Iterations 0
smoothSolver:  Solving for Uy, Initial residual = 3.32558e-07, Final residual = 3.32558e-07, No Iterations 0
smoothSolver:  Solving for Uz, Initial residual = 1.83739e-08, Final residual = 1.83739e-08, No Iterations 0
diagonal:  Solving for rhoE, Initial residual = 0, Final residual = 0, No Iterations 0
smoothSolver:  Solving for e, Initial residual = 5.3679e-09, Final residual = 5.3679e-09, No Iterations 0
smoothSolver:  Solving for omega, Initial residual = 1.18807e-06, Final residual = 1.16099e-09, No Iterations 1
smoothSolver:  Solving for k, Initial residual = 0.000833303, Final residual = 4.71293e-07, No Iterations 1
ExecutionTime = 5.37 s  ClockTime = 6 s

deltaT = 4.81107e-06
Mean and max Courant Numbers = 0.00149014 0.100297
Time = 0.00011806

diagonal:  Solving for rho, Initial residual = 0, Final residual = 0, No Iterations 0
diagonal:  Solving for rhoUx, Initial residual = 0, Final residual = 0, No Iterations 0
diagonal:  Solving for rhoUy, Initial residual = 0, Final residual = 0, No Iterations 0
diagonal:  Solving for rhoUz, Initial residual = 0, Final residual = 0, No Iterations 0
smoothSolver:  Solving for Ux, Initial residual = 1.18619e-07, Final residual = 1.18619e-07, No Iterations 0
smoothSolver:  Solving for Uy, Initial residual = 3.11372e-07, Final residual = 3.11372e-07, No Iterations 0
smoothSolver:  Solving for Uz, Initial residual = 1.7145e-08, Final residual = 1.7145e-08, No Iterations 0
diagonal:  Solving for rhoE, Initial residual = 0, Final residual = 0, No Iterations 0
smoothSolver:  Solving for e, Initial residual = 4.81486e-09, Final residual = 4.81486e-09, No Iterations 0
smoothSolver:  Solving for omega, Initial residual = 1.18321e-06, Final residual = 1.1685e-09, No Iterations 1
smoothSolver:  Solving for k, Initial residual = 0.000778397, Final residual = 4.39741e-07, No Iterations 1
ExecutionTime = 5.56 s  ClockTime = 6 s

deltaT = 4.79706e-06
Mean and max Courant Numbers = 0.0014858 0.100282
Time = 0.000122857

diagonal:  Solving for rho, Initial residual = 0, Final residual = 0, No Iterations 0
diagonal:  Solving for rhoUx, Initial residual = 0, Final residual = 0, No Iterations 0
diagonal:  Solving for rhoUy, Initial residual = 0, Final residual = 0, No Iterations 0
diagonal:  Solving for rhoUz, Initial residual = 0, Final residual = 0, No Iterations 0
smoothSolver:  Solving for Ux, Initial residual = 1.13491e-07, Final residual = 1.13491e-07, No Iterations 0
smoothSolver:  Solving for Uy, Initial residual = 2.93873e-07, Final residual = 2.93873e-07, No Iterations 0
smoothSolver:  Solving for Uz, Initial residual = 1.60769e-08, Final residual = 1.60769e-08, No Iterations 0
diagonal:  Solving for rhoE, Initial residual = 0, Final residual = 0, No Iterations 0
smoothSolver:  Solving for e, Initial residual = 4.49816e-09, Final residual = 4.49816e-09, No Iterations 0
smoothSolver:  Solving for omega, Initial residual = 1.17892e-06, Final residual = 1.17692e-09, No Iterations 1
smoothSolver:  Solving for k, Initial residual = 0.000730032, Final residual = 4.12174e-07, No Iterations 1
ExecutionTime = 5.74 s  ClockTime = 6 s

deltaT = 4.78312e-06
Mean and max Courant Numbers = 0.00148148 0.100238
Time = 0.00012764

diagonal:  Solving for rho, Initial residual = 0, Final residual = 0, No Iterations 0
diagonal:  Solving for rhoUx, Initial residual = 0, Final residual = 0, No Iterations 0
diagonal:  Solving for rhoUy, Initial residual = 0, Final residual = 0, No Iterations 0
diagonal:  Solving for rhoUz, Initial residual = 0, Final residual = 0, No Iterations 0
smoothSolver:  Solving for Ux, Initial residual = 1.09115e-07, Final residual = 1.09115e-07, No Iterations 0
smoothSolver:  Solving for Uy, Initial residual = 2.78794e-07, Final residual = 2.78794e-07, No Iterations 0
smoothSolver:  Solving for Uz, Initial residual = 1.51297e-08, Final residual = 1.51297e-08, No Iterations 0
diagonal:  Solving for rhoE, Initial residual = 0, Final residual = 0, No Iterations 0
smoothSolver:  Solving for e, Initial residual = 4.27377e-09, Final residual = 4.27377e-09, No Iterations 0
smoothSolver:  Solving for omega, Initial residual = 1.17473e-06, Final residual = 1.1853e-09, No Iterations 1
smoothSolver:  Solving for k, Initial residual = 0.000686804, Final residual = 3.87547e-07, No Iterations 1
ExecutionTime = 5.93 s  ClockTime = 6 s

deltaT = 4.77156e-06
Mean and max Courant Numbers = 0.0014779 0.100216
Time = 0.000132412

diagonal:  Solving for rho, Initial residual = 0, Final residual = 0, No Iterations 0
diagonal:  Solving for rhoUx, Initial residual = 0, Final residual = 0, No Iterations 0
diagonal:  Solving for rhoUy, Initial residual = 0, Final residual = 0, No Iterations 0
diagonal:  Solving for rhoUz, Initial residual = 0, Final residual = 0, No Iterations 0
smoothSolver:  Solving for Ux, Initial residual = 1.05117e-07, Final residual = 1.05117e-07, No Iterations 0
smoothSolver:  Solving for Uy, Initial residual = 2.65198e-07, Final residual = 2.65198e-07, No Iterations 0
smoothSolver:  Solving for Uz, Initial residual = 1.42907e-08, Final residual = 1.42907e-08, No Iterations 0
diagonal:  Solving for rhoE, Initial residual = 0, Final residual = 0, No Iterations 0
smoothSolver:  Solving for e, Initial residual = 4.06746e-09, Final residual = 4.06746e-09, No Iterations 0
smoothSolver:  Solving for omega, Initial residual = 1.17123e-06, Final residual = 1.19496e-09, No Iterations 1
smoothSolver:  Solving for k, Initial residual = 0.000648246, Final residual = 3.65758e-07, No Iterations 1
ExecutionTime = 6.11 s  ClockTime = 7 s

deltaT = 4.76235e-06
Mean and max Courant Numbers = 0.00147505 0.100218
Time = 0.000137174

diagonal:  Solving for rho, Initial residual = 0, Final residual = 0, No Iterations 0
diagonal:  Solving for rhoUx, Initial residual = 0, Final residual = 0, No Iterations 0
diagonal:  Solving for rhoUy, Initial residual = 0, Final residual = 0, No Iterations 0
diagonal:  Solving for rhoUz, Initial residual = 0, Final residual = 0, No Iterations 0
smoothSolver:  Solving for Ux, Initial residual = 1.01447e-07, Final residual = 1.01447e-07, No Iterations 0
smoothSolver:  Solving for Uy, Initial residual = 2.52928e-07, Final residual = 2.52928e-07, No Iterations 0
smoothSolver:  Solving for Uz, Initial residual = 1.35406e-08, Final residual = 1.35406e-08, No Iterations 0
diagonal:  Solving for rhoE, Initial residual = 0, Final residual = 0, No Iterations 0
smoothSolver:  Solving for e, Initial residual = 3.88883e-09, Final residual = 3.88883e-09, No Iterations 0
smoothSolver:  Solving for omega, Initial residual = 1.16837e-06, Final residual = 1.20597e-09, No Iterations 1
smoothSolver:  Solving for k, Initial residual = 0.000613656, Final residual = 3.46375e-07, No Iterations 1
ExecutionTime = 6.31 s  ClockTime = 7 s

deltaT = 4.75088e-06
Mean and max Courant Numbers = 0.00147149 0.100148
Time = 0.000141925

diagonal:  Solving for rho, Initial residual = 0, Final residual = 0, No Iterations 0
diagonal:  Solving for rhoUx, Initial residual = 0, Final residual = 0, No Iterations 0
diagonal:  Solving for rhoUy, Initial residual = 0, Final residual = 0, No Iterations 0
diagonal:  Solving for rhoUz, Initial residual = 0, Final residual = 0, No Iterations 0
smoothSolver:  Solving for Ux, Initial residual = 9.80912e-08, Final residual = 9.80912e-08, No Iterations 0
smoothSolver:  Solving for Uy, Initial residual = 2.41842e-07, Final residual = 2.41842e-07, No Iterations 0
smoothSolver:  Solving for Uz, Initial residual = 1.28541e-08, Final residual = 1.28541e-08, No Iterations 0
diagonal:  Solving for rhoE, Initial residual = 0, Final residual = 0, No Iterations 0
smoothSolver:  Solving for e, Initial residual = 3.72629e-09, Final residual = 3.72629e-09, No Iterations 0
smoothSolver:  Solving for omega, Initial residual = 1.16474e-06, Final residual = 1.21526e-09, No Iterations 1
smoothSolver:  Solving for k, Initial residual = 0.000581914, Final residual = 3.28407e-07, No Iterations 1
ExecutionTime = 6.52 s  ClockTime = 7 s

deltaT = 4.74402e-06
Mean and max Courant Numbers = 0.00146937 0.100153
Time = 0.000146669

diagonal:  Solving for rho, Initial residual = 0, Final residual = 0, No Iterations 0
diagonal:  Solving for rhoUx, Initial residual = 0, Final residual = 0, No Iterations 0
diagonal:  Solving for rhoUy, Initial residual = 0, Final residual = 0, No Iterations 0
diagonal:  Solving for rhoUz, Initial residual = 0, Final residual = 0, No Iterations 0
smoothSolver:  Solving for Ux, Initial residual = 9.52505e-08, Final residual = 9.52505e-08, No Iterations 0
smoothSolver:  Solving for Uy, Initial residual = 2.32422e-07, Final residual = 2.32422e-07, No Iterations 0
smoothSolver:  Solving for Uz, Initial residual = 1.22403e-08, Final residual = 1.22403e-08, No Iterations 0
diagonal:  Solving for rhoE, Initial residual = 0, Final residual = 0, No Iterations 0
smoothSolver:  Solving for e, Initial residual = 3.59672e-09, Final residual = 3.59672e-09, No Iterations 0
smoothSolver:  Solving for omega, Initial residual = 1.1622e-06, Final residual = 1.22693e-09, No Iterations 1
smoothSolver:  Solving for k, Initial residual = 0.000553468, Final residual = 3.12593e-07, No Iterations 1
ExecutionTime = 6.7 s  ClockTime = 7 s

deltaT = 4.73718e-06
Mean and max Courant Numbers = 0.00146725 0.100139
Time = 0.000151406

diagonal:  Solving for rho, Initial residual = 0, Final residual = 0, No Iterations 0
diagonal:  Solving for rhoUx, Initial residual = 0, Final residual = 0, No Iterations 0
diagonal:  Solving for rhoUy, Initial residual = 0, Final residual = 0, No Iterations 0
diagonal:  Solving for rhoUz, Initial residual = 0, Final residual = 0, No Iterations 0
smoothSolver:  Solving for Ux, Initial residual = 9.26823e-08, Final residual = 9.26823e-08, No Iterations 0
smoothSolver:  Solving for Uy, Initial residual = 2.23959e-07, Final residual = 2.23959e-07, No Iterations 0
smoothSolver:  Solving for Uz, Initial residual = 1.16788e-08, Final residual = 1.16788e-08, No Iterations 0
diagonal:  Solving for rhoE, Initial residual = 0, Final residual = 0, No Iterations 0
smoothSolver:  Solving for e, Initial residual = 3.48061e-09, Final residual = 3.48061e-09, No Iterations 0
smoothSolver:  Solving for omega, Initial residual = 1.15965e-06, Final residual = 1.23861e-09, No Iterations 1
smoothSolver:  Solving for k, Initial residual = 0.000527368, Final residual = 2.98066e-07, No Iterations 1
ExecutionTime = 6.91 s  ClockTime = 7 s

deltaT = 4.73035e-06
Mean and max Courant Numbers = 0.00146514 0.100107
Time = 0.000156136

diagonal:  Solving for rho, Initial residual = 0, Final residual = 0, No Iterations 0
diagonal:  Solving for rhoUx, Initial residual = 0, Final residual = 0, No Iterations 0
diagonal:  Solving for rhoUy, Initial residual = 0, Final residual = 0, No Iterations 0
diagonal:  Solving for rhoUz, Initial residual = 0, Final residual = 0, No Iterations 0
smoothSolver:  Solving for Ux, Initial residual = 9.03454e-08, Final residual = 9.03454e-08, No Iterations 0
smoothSolver:  Solving for Uy, Initial residual = 2.16388e-07, Final residual = 2.16388e-07, No Iterations 0
smoothSolver:  Solving for Uz, Initial residual = 1.11628e-08, Final residual = 1.11628e-08, No Iterations 0
diagonal:  Solving for rhoE, Initial residual = 0, Final residual = 0, No Iterations 0
smoothSolver:  Solving for e, Initial residual = 3.37398e-09, Final residual = 3.37398e-09, No Iterations 0
smoothSolver:  Solving for omega, Initial residual = 1.15711e-06, Final residual = 1.25021e-09, No Iterations 1
smoothSolver:  Solving for k, Initial residual = 0.000503332, Final residual = 2.84669e-07, No Iterations 1
ExecutionTime = 7.13 s  ClockTime = 8 s

deltaT = 4.72581e-06
Mean and max Courant Numbers = 0.00146373 0.100142
Time = 0.000160862

diagonal:  Solving for rho, Initial residual = 0, Final residual = 0, No Iterations 0
diagonal:  Solving for rhoUx, Initial residual = 0, Final residual = 0, No Iterations 0
diagonal:  Solving for rhoUy, Initial residual = 0, Final residual = 0, No Iterations 0
diagonal:  Solving for rhoUz, Initial residual = 0, Final residual = 0, No Iterations 0
smoothSolver:  Solving for Ux, Initial residual = 8.83071e-08, Final residual = 8.83071e-08, No Iterations 0
smoothSolver:  Solving for Uy, Initial residual = 2.09998e-07, Final residual = 2.09998e-07, No Iterations 0
smoothSolver:  Solving for Uz, Initial residual = 1.06914e-08, Final residual = 1.06914e-08, No Iterations 0
diagonal:  Solving for rhoE, Initial residual = 0, Final residual = 0, No Iterations 0
smoothSolver:  Solving for e, Initial residual = 3.27868e-09, Final residual = 3.27868e-09, No Iterations 0
smoothSolver:  Solving for omega, Initial residual = 1.15512e-06, Final residual = 1.26292e-09, No Iterations 1
smoothSolver:  Solving for k, Initial residual = 0.000481358, Final residual = 2.72536e-07, No Iterations 1
ExecutionTime = 7.33 s  ClockTime = 8 s

deltaT = 4.71901e-06
Mean and max Courant Numbers = 0.00146162 0.100072
Time = 0.000165581

diagonal:  Solving for rho, Initial residual = 0, Final residual = 0, No Iterations 0
diagonal:  Solving for rhoUx, Initial residual = 0, Final residual = 0, No Iterations 0
diagonal:  Solving for rhoUy, Initial residual = 0, Final residual = 0, No Iterations 0
diagonal:  Solving for rhoUz, Initial residual = 0, Final residual = 0, No Iterations 0
smoothSolver:  Solving for Ux, Initial residual = 8.63865e-08, Final residual = 8.63865e-08, No Iterations 0
smoothSolver:  Solving for Uy, Initial residual = 2.03955e-07, Final residual = 2.03955e-07, No Iterations 0
smoothSolver:  Solving for Uz, Initial residual = 1.02505e-08, Final residual = 1.02505e-08, No Iterations 0
diagonal:  Solving for rhoE, Initial residual = 0, Final residual = 0, No Iterations 0
smoothSolver:  Solving for e, Initial residual = 3.18382e-09, Final residual = 3.18382e-09, No Iterations 0
smoothSolver:  Solving for omega, Initial residual = 1.15257e-06, Final residual = 1.27431e-09, No Iterations 1
smoothSolver:  Solving for k, Initial residual = 0.000460762, Final residual = 2.61022e-07, No Iterations 1
ExecutionTime = 7.53 s  ClockTime = 8 s

deltaT = 4.71449e-06
Mean and max Courant Numbers = 0.00146022 0.100015
Time = 0.000170296

diagonal:  Solving for rho, Initial residual = 0, Final residual = 0, No Iterations 0
diagonal:  Solving for rhoUx, Initial residual = 0, Final residual = 0, No Iterations 0
diagonal:  Solving for rhoUy, Initial residual = 0, Final residual = 0, No Iterations 0
diagonal:  Solving for rhoUz, Initial residual = 0, Final residual = 0, No Iterations 0
smoothSolver:  Solving for Ux, Initial residual = 8.45328e-08, Final residual = 8.45328e-08, No Iterations 0
smoothSolver:  Solving for Uy, Initial residual = 1.98285e-07, Final residual = 1.98285e-07, No Iterations 0
smoothSolver:  Solving for Uz, Initial residual = 9.84581e-09, Final residual = 9.84581e-09, No Iterations 0
diagonal:  Solving for rhoE, Initial residual = 0, Final residual = 0, No Iterations 0
smoothSolver:  Solving for e, Initial residual = 3.09562e-09, Final residual = 3.09562e-09, No Iterations 0
smoothSolver:  Solving for omega, Initial residual = 1.15056e-06, Final residual = 1.28682e-09, No Iterations 1
smoothSolver:  Solving for k, Initial residual = 0.000441836, Final residual = 2.50549e-07, No Iterations 1
ExecutionTime = 7.72 s  ClockTime = 8 s

deltaT = 4.71449e-06
Mean and max Courant Numbers = 0.00146022 0.100056
Time = 0.00017501

diagonal:  Solving for rho, Initial residual = 0, Final residual = 0, No Iterations 0
diagonal:  Solving for rhoUx, Initial residual = 0, Final residual = 0, No Iterations 0
diagonal:  Solving for rhoUy, Initial residual = 0, Final residual = 0, No Iterations 0
diagonal:  Solving for rhoUz, Initial residual = 0, Final residual = 0, No Iterations 0
smoothSolver:  Solving for Ux, Initial residual = 8.28231e-08, Final residual = 8.28231e-08, No Iterations 0
smoothSolver:  Solving for Uy, Initial residual = 1.93085e-07, Final residual = 1.93085e-07, No Iterations 0
smoothSolver:  Solving for Uz, Initial residual = 9.47692e-09, Final residual = 9.47692e-09, No Iterations 0
diagonal:  Solving for rhoE, Initial residual = 0, Final residual = 0, No Iterations 0
smoothSolver:  Solving for e, Initial residual = 3.0158e-09, Final residual = 3.0158e-09, No Iterations 0
smoothSolver:  Solving for omega, Initial residual = 1.14965e-06, Final residual = 1.30171e-09, No Iterations 1
smoothSolver:  Solving for k, Initial residual = 0.000424601, Final residual = 2.41232e-07, No Iterations 1
ExecutionTime = 7.94 s  ClockTime = 8 s

deltaT = 4.71223e-06
Mean and max Courant Numbers = 0.00145952 0.10004
Time = 0.000179722

diagonal:  Solving for rho, Initial residual = 0, Final residual = 0, No Iterations 0
diagonal:  Solving for rhoUx, Initial residual = 0, Final residual = 0, No Iterations 0
diagonal:  Solving for rhoUy, Initial residual = 0, Final residual = 0, No Iterations 0
diagonal:  Solving for rhoUz, Initial residual = 0, Final residual = 0, No Iterations 0
smoothSolver:  Solving for Ux, Initial residual = 8.11603e-08, Final residual = 8.11603e-08, No Iterations 0
smoothSolver:  Solving for Uy, Initial residual = 1.88133e-07, Final residual = 1.88133e-07, No Iterations 0
smoothSolver:  Solving for Uz, Initial residual = 9.12887e-09, Final residual = 9.12887e-09, No Iterations 0
diagonal:  Solving for rhoE, Initial residual = 0, Final residual = 0, No Iterations 0
smoothSolver:  Solving for e, Initial residual = 2.94078e-09, Final residual = 2.94078e-09, No Iterations 0
smoothSolver:  Solving for omega, Initial residual = 1.148e-06, Final residual = 1.31379e-09, No Iterations 1
smoothSolver:  Solving for k, Initial residual = 0.00040828, Final residual = 2.32262e-07, No Iterations 1
ExecutionTime = 8.16 s  ClockTime = 9 s

deltaT = 4.70997e-06
Mean and max Courant Numbers = 0.00145882 0.100014
Time = 0.000184432

diagonal:  Solving for rho, Initial residual = 0, Final residual = 0, No Iterations 0
diagonal:  Solving for rhoUx, Initial residual = 0, Final residual = 0, No Iterations 0
diagonal:  Solving for rhoUy, Initial residual = 0, Final residual = 0, No Iterations 0
diagonal:  Solving for rhoUz, Initial residual = 0, Final residual = 0, No Iterations 0
smoothSolver:  Solving for Ux, Initial residual = 7.95857e-08, Final residual = 7.95857e-08, No Iterations 0
smoothSolver:  Solving for Uy, Initial residual = 1.83524e-07, Final residual = 1.83524e-07, No Iterations 0
smoothSolver:  Solving for Uz, Initial residual = 8.80449e-09, Final residual = 8.80449e-09, No Iterations 0
diagonal:  Solving for rhoE, Initial residual = 0, Final residual = 0, No Iterations 0
smoothSolver:  Solving for e, Initial residual = 2.87185e-09, Final residual = 2.87185e-09, No Iterations 0
smoothSolver:  Solving for omega, Initial residual = 1.14633e-06, Final residual = 1.3259e-09, No Iterations 1
smoothSolver:  Solving for k, Initial residual = 0.000393015, Final residual = 2.23853e-07, No Iterations 1
ExecutionTime = 8.36 s  ClockTime = 9 s

deltaT = 4.70997e-06
Mean and max Courant Numbers = 0.00145882 0.10003
Time = 0.000189142

diagonal:  Solving for rho, Initial residual = 0, Final residual = 0, No Iterations 0
diagonal:  Solving for rhoUx, Initial residual = 0, Final residual = 0, No Iterations 0
diagonal:  Solving for rhoUy, Initial residual = 0, Final residual = 0, No Iterations 0
diagonal:  Solving for rhoUz, Initial residual = 0, Final residual = 0, No Iterations 0
smoothSolver:  Solving for Ux, Initial residual = 7.8086e-08, Final residual = 7.8086e-08, No Iterations 0
smoothSolver:  Solving for Uy, Initial residual = 1.79201e-07, Final residual = 1.79201e-07, No Iterations 0
smoothSolver:  Solving for Uz, Initial residual = 8.50595e-09, Final residual = 8.50595e-09, No Iterations 0
diagonal:  Solving for rhoE, Initial residual = 0, Final residual = 0, No Iterations 0
smoothSolver:  Solving for e, Initial residual = 2.81102e-09, Final residual = 2.81102e-09, No Iterations 0
smoothSolver:  Solving for omega, Initial residual = 1.145e-06, Final residual = 1.33865e-09, No Iterations 1
smoothSolver:  Solving for k, Initial residual = 0.000378901, Final residual = 2.16165e-07, No Iterations 1
ExecutionTime = 8.55 s  ClockTime = 9 s

deltaT = 4.70771e-06
Mean and max Courant Numbers = 0.00145812 0.0999898
Time = 0.00019385

diagonal:  Solving for rho, Initial residual = 0, Final residual = 0, No Iterations 0
diagonal:  Solving for rhoUx, Initial residual = 0, Final residual = 0, No Iterations 0
diagonal:  Solving for rhoUy, Initial residual = 0, Final residual = 0, No Iterations 0
diagonal:  Solving for rhoUz, Initial residual = 0, Final residual = 0, No Iterations 0
smoothSolver:  Solving for Ux, Initial residual = 7.66065e-08, Final residual = 7.66065e-08, No Iterations 0
smoothSolver:  Solving for Uy, Initial residual = 1.75074e-07, Final residual = 1.75074e-07, No Iterations 0
smoothSolver:  Solving for Uz, Initial residual = 8.22299e-09, Final residual = 8.22299e-09, No Iterations 0
diagonal:  Solving for rhoE, Initial residual = 0, Final residual = 0, No Iterations 0
smoothSolver:  Solving for e, Initial residual = 2.76842e-09, Final residual = 2.76842e-09, No Iterations 0
smoothSolver:  Solving for omega, Initial residual = 1.14293e-06, Final residual = 1.34922e-09, No Iterations 1
smoothSolver:  Solving for k, Initial residual = 0.000365478, Final residual = 2.08724e-07, No Iterations 1
ExecutionTime = 8.77 s  ClockTime = 9 s

deltaT = 4.70771e-06
Mean and max Courant Numbers = 0.00145812 0.0999917
Time = 0.000198558

diagonal:  Solving for rho, Initial residual = 0, Final residual = 0, No Iterations 0
diagonal:  Solving for rhoUx, Initial residual = 0, Final residual = 0, No Iterations 0
diagonal:  Solving for rhoUy, Initial residual = 0, Final residual = 0, No Iterations 0
diagonal:  Solving for rhoUz, Initial residual = 0, Final residual = 0, No Iterations 0
smoothSolver:  Solving for Ux, Initial residual = 7.52799e-08, Final residual = 7.52799e-08, No Iterations 0
smoothSolver:  Solving for Uy, Initial residual = 1.71348e-07, Final residual = 1.71348e-07, No Iterations 0
smoothSolver:  Solving for Uz, Initial residual = 7.96307e-09, Final residual = 7.96307e-09, No Iterations 0
diagonal:  Solving for rhoE, Initial residual = 0, Final residual = 0, No Iterations 0
smoothSolver:  Solving for e, Initial residual = 2.74851e-09, Final residual = 2.74851e-09, No Iterations 0
smoothSolver:  Solving for omega, Initial residual = 1.14126e-06, Final residual = 1.36055e-09, No Iterations 1
smoothSolver:  Solving for k, Initial residual = 0.000353039, Final residual = 2.01903e-07, No Iterations 1
ExecutionTime = 8.98 s  ClockTime = 9 s

deltaT = 4.70771e-06
Mean and max Courant Numbers = 0.00145812 0.100083
Time = 0.000203265

diagonal:  Solving for rho, Initial residual = 0, Final residual = 0, No Iterations 0
diagonal:  Solving for rhoUx, Initial residual = 0, Final residual = 0, No Iterations 0
diagonal:  Solving for rhoUy, Initial residual = 0, Final residual = 0, No Iterations 0
diagonal:  Solving for rhoUz, Initial residual = 0, Final residual = 0, No Iterations 0
smoothSolver:  Solving for Ux, Initial residual = 7.4059e-08, Final residual = 7.4059e-08, No Iterations 0
smoothSolver:  Solving for Uy, Initial residual = 1.67859e-07, Final residual = 1.67859e-07, No Iterations 0
smoothSolver:  Solving for Uz, Initial residual = 7.72111e-09, Final residual = 7.72111e-09, No Iterations 0
diagonal:  Solving for rhoE, Initial residual = 0, Final residual = 0, No Iterations 0
smoothSolver:  Solving for e, Initial residual = 2.76473e-09, Final residual = 2.76473e-09, No Iterations 0
smoothSolver:  Solving for omega, Initial residual = 1.13957e-06, Final residual = 1.37194e-09, No Iterations 1
smoothSolver:  Solving for k, Initial residual = 0.000341342, Final residual = 1.95471e-07, No Iterations 1
ExecutionTime = 9.16 s  ClockTime = 10 s

deltaT = 4.70319e-06
Mean and max Courant Numbers = 0.00145672 0.100113
Time = 0.000207969

diagonal:  Solving for rho, Initial residual = 0, Final residual = 0, No Iterations 0
diagonal:  Solving for rhoUx, Initial residual = 0, Final residual = 0, No Iterations 0
diagonal:  Solving for rhoUy, Initial residual = 0, Final residual = 0, No Iterations 0
diagonal:  Solving for rhoUz, Initial residual = 0, Final residual = 0, No Iterations 0
smoothSolver:  Solving for Ux, Initial residual = 7.28164e-08, Final residual = 7.28164e-08, No Iterations 0
smoothSolver:  Solving for Uy, Initial residual = 1.64402e-07, Final residual = 1.64402e-07, No Iterations 0
smoothSolver:  Solving for Uz, Initial residual = 7.49312e-09, Final residual = 7.49312e-09, No Iterations 0
diagonal:  Solving for rhoE, Initial residual = 0, Final residual = 0, No Iterations 0
smoothSolver:  Solving for e, Initial residual = 2.90358e-09, Final residual = 2.90358e-09, No Iterations 0
smoothSolver:  Solving for omega, Initial residual = 1.13694e-06, Final residual = 1.38107e-09, No Iterations 1
smoothSolver:  Solving for k, Initial residual = 0.000330011, Final residual = 1.89037e-07, No Iterations 1
ExecutionTime = 9.33 s  ClockTime = 10 s

deltaT = 4.69867e-06
Mean and max Courant Numbers = 0.00145532 0.100136
Time = 0.000212667

diagonal:  Solving for rho, Initial residual = 0, Final residual = 0, No Iterations 0
diagonal:  Solving for rhoUx, Initial residual = 0, Final residual = 0, No Iterations 0
diagonal:  Solving for rhoUy, Initial residual = 0, Final residual = 0, No Iterations 0
diagonal:  Solving for rhoUz, Initial residual = 0, Final residual = 0, No Iterations 0
smoothSolver:  Solving for Ux, Initial residual = 7.17171e-08, Final residual = 7.17171e-08, No Iterations 0
smoothSolver:  Solving for Uy, Initial residual = 1.61287e-07, Final residual = 1.61287e-07, No Iterations 0
smoothSolver:  Solving for Uz, Initial residual = 7.33286e-09, Final residual = 7.33286e-09, No Iterations 0
diagonal:  Solving for rhoE, Initial residual = 0, Final residual = 0, No Iterations 0
smoothSolver:  Solving for e, Initial residual = 4.00029e-09, Final residual = 4.00029e-09, No Iterations 0
smoothSolver:  Solving for omega, Initial residual = 1.1344e-06, Final residual = 1.39035e-09, No Iterations 1
smoothSolver:  Solving for k, Initial residual = 0.000319339, Final residual = 1.82978e-07, No Iterations 1
ExecutionTime = 9.53 s  ClockTime = 10 s

deltaT = 4.69191e-06
Mean and max Courant Numbers = 0.00145323 0.100103
Time = 0.000217359

diagonal:  Solving for rho, Initial residual = 0, Final residual = 0, No Iterations 0
diagonal:  Solving for rhoUx, Initial residual = 0, Final residual = 0, No Iterations 0
diagonal:  Solving for rhoUy, Initial residual = 0, Final residual = 0, No Iterations 0
diagonal:  Solving for rhoUz, Initial residual = 0, Final residual = 0, No Iterations 0
smoothSolver:  Solving for Ux, Initial residual = 7.07543e-08, Final residual = 7.07543e-08, No Iterations 0
smoothSolver:  Solving for Uy, Initial residual = 1.5843e-07, Final residual = 1.5843e-07, No Iterations 0
smoothSolver:  Solving for Uz, Initial residual = 7.1378e-09, Final residual = 7.1378e-09, No Iterations 0
diagonal:  Solving for rhoE, Initial residual = 0, Final residual = 0, No Iterations 0
smoothSolver:  Solving for e, Initial residual = 4.17034e-09, Final residual = 4.17034e-09, No Iterations 0
smoothSolver:  Solving for omega, Initial residual = 1.13133e-06, Final residual = 1.39782e-09, No Iterations 1
smoothSolver:  Solving for k, Initial residual = 0.000309117, Final residual = 1.7707e-07, No Iterations 1
ExecutionTime = 9.74 s  ClockTime = 10 s

deltaT = 4.68742e-06
Mean and max Courant Numbers = 0.00145184 0.100112
Time = 0.000222047

diagonal:  Solving for rho, Initial residual = 0, Final residual = 0, No Iterations 0
diagonal:  Solving for rhoUx, Initial residual = 0, Final residual = 0, No Iterations 0
diagonal:  Solving for rhoUy, Initial residual = 0, Final residual = 0, No Iterations 0
diagonal:  Solving for rhoUz, Initial residual = 0, Final residual = 0, No Iterations 0
smoothSolver:  Solving for Ux, Initial residual = 6.97452e-08, Final residual = 6.97452e-08, No Iterations 0
smoothSolver:  Solving for Uy, Initial residual = 1.55544e-07, Final residual = 1.55544e-07, No Iterations 0
smoothSolver:  Solving for Uz, Initial residual = 6.94328e-09, Final residual = 6.94328e-09, No Iterations 0
diagonal:  Solving for rhoE, Initial residual = 0, Final residual = 0, No Iterations 0
smoothSolver:  Solving for e, Initial residual = 4.07928e-09, Final residual = 4.07928e-09, No Iterations 0
smoothSolver:  Solving for omega, Initial residual = 1.12888e-06, Final residual = 1.40656e-09, No Iterations 1
smoothSolver:  Solving for k, Initial residual = 0.000299604, Final residual = 1.71639e-07, No Iterations 1
ExecutionTime = 9.94 s  ClockTime = 10 s

deltaT = 4.68293e-06
Mean and max Courant Numbers = 0.00145045 0.100113
Time = 0.00022673

diagonal:  Solving for rho, Initial residual = 0, Final residual = 0, No Iterations 0
diagonal:  Solving for rhoUx, Initial residual = 0, Final residual = 0, No Iterations 0
diagonal:  Solving for rhoUy, Initial residual = 0, Final residual = 0, No Iterations 0
diagonal:  Solving for rhoUz, Initial residual = 0, Final residual = 0, No Iterations 0
smoothSolver:  Solving for Ux, Initial residual = 6.87064e-08, Final residual = 6.87064e-08, No Iterations 0
smoothSolver:  Solving for Uy, Initial residual = 1.52668e-07, Final residual = 1.52668e-07, No Iterations 0
smoothSolver:  Solving for Uz, Initial residual = 6.75805e-09, Final residual = 6.75805e-09, No Iterations 0
diagonal:  Solving for rhoE, Initial residual = 0, Final residual = 0, No Iterations 0
smoothSolver:  Solving for e, Initial residual = 3.96561e-09, Final residual = 3.96561e-09, No Iterations 0
smoothSolver:  Solving for omega, Initial residual = 1.1264e-06, Final residual = 1.41518e-09, No Iterations 1
smoothSolver:  Solving for k, Initial residual = 0.000290596, Final residual = 1.66487e-07, No Iterations 1
ExecutionTime = 10.15 s  ClockTime = 11 s

deltaT = 4.67844e-06
Mean and max Courant Numbers = 0.00144906 0.100105
Time = 0.000231408

diagonal:  Solving for rho, Initial residual = 0, Final residual = 0, No Iterations 0
diagonal:  Solving for rhoUx, Initial residual = 0, Final residual = 0, No Iterations 0
diagonal:  Solving for rhoUy, Initial residual = 0, Final residual = 0, No Iterations 0
diagonal:  Solving for rhoUz, Initial residual = 0, Final residual = 0, No Iterations 0
smoothSolver:  Solving for Ux, Initial residual = 6.77553e-08, Final residual = 6.77553e-08, No Iterations 0
smoothSolver:  Solving for Uy, Initial residual = 1.50047e-07, Final residual = 1.50047e-07, No Iterations 0
smoothSolver:  Solving for Uz, Initial residual = 6.5824e-09, Final residual = 6.5824e-09, No Iterations 0
diagonal:  Solving for rhoE, Initial residual = 0, Final residual = 0, No Iterations 0
smoothSolver:  Solving for e, Initial residual = 3.85725e-09, Final residual = 3.85725e-09, No Iterations 0
smoothSolver:  Solving for omega, Initial residual = 1.12389e-06, Final residual = 1.42361e-09, No Iterations 1
smoothSolver:  Solving for k, Initial residual = 0.000282058, Final residual = 1.61592e-07, No Iterations 1
ExecutionTime = 10.34 s  ClockTime = 11 s

deltaT = 4.67397e-06
Mean and max Courant Numbers = 0.00144767 0.100087
Time = 0.000236082

diagonal:  Solving for rho, Initial residual = 0, Final residual = 0, No Iterations 0
diagonal:  Solving for rhoUx, Initial residual = 0, Final residual = 0, No Iterations 0
diagonal:  Solving for rhoUy, Initial residual = 0, Final residual = 0, No Iterations 0
diagonal:  Solving for rhoUz, Initial residual = 0, Final residual = 0, No Iterations 0
smoothSolver:  Solving for Ux, Initial residual = 6.68742e-08, Final residual = 6.68742e-08, No Iterations 0
smoothSolver:  Solving for Uy, Initial residual = 1.47535e-07, Final residual = 1.47535e-07, No Iterations 0
smoothSolver:  Solving for Uz, Initial residual = 6.41578e-09, Final residual = 6.41578e-09, No Iterations 0
diagonal:  Solving for rhoE, Initial residual = 0, Final residual = 0, No Iterations 0
smoothSolver:  Solving for e, Initial residual = 3.75196e-09, Final residual = 3.75196e-09, No Iterations 0
smoothSolver:  Solving for omega, Initial residual = 1.12139e-06, Final residual = 1.43185e-09, No Iterations 1
smoothSolver:  Solving for k, Initial residual = 0.000273954, Final residual = 1.56938e-07, No Iterations 1
ExecutionTime = 10.53 s  ClockTime = 11 s

deltaT = 4.6695e-06
Mean and max Courant Numbers = 0.00144629 0.100051
Time = 0.000240751

diagonal:  Solving for rho, Initial residual = 0, Final residual = 0, No Iterations 0
diagonal:  Solving for rhoUx, Initial residual = 0, Final residual = 0, No Iterations 0
diagonal:  Solving for rhoUy, Initial residual = 0, Final residual = 0, No Iterations 0
diagonal:  Solving for rhoUz, Initial residual = 0, Final residual = 0, No Iterations 0
smoothSolver:  Solving for Ux, Initial residual = 6.60396e-08, Final residual = 6.60396e-08, No Iterations 0
smoothSolver:  Solving for Uy, Initial residual = 1.45127e-07, Final residual = 1.45127e-07, No Iterations 0
smoothSolver:  Solving for Uz, Initial residual = 6.25731e-09, Final residual = 6.25731e-09, No Iterations 0
diagonal:  Solving for rhoE, Initial residual = 0, Final residual = 0, No Iterations 0
smoothSolver:  Solving for e, Initial residual = 3.64976e-09, Final residual = 3.64976e-09, No Iterations 0
smoothSolver:  Solving for omega, Initial residual = 1.11889e-06, Final residual = 1.43999e-09, No Iterations 1
smoothSolver:  Solving for k, Initial residual = 0.000266253, Final residual = 1.52512e-07, No Iterations 1
ExecutionTime = 10.71 s  ClockTime = 11 s

deltaT = 4.66726e-06
Mean and max Courant Numbers = 0.00144559 0.100047
Time = 0.000245419

diagonal:  Solving for rho, Initial residual = 0, Final residual = 0, No Iterations 0
diagonal:  Solving for rhoUx, Initial residual = 0, Final residual = 0, No Iterations 0
diagonal:  Solving for rhoUy, Initial residual = 0, Final residual = 0, No Iterations 0
diagonal:  Solving for rhoUz, Initial residual = 0, Final residual = 0, No Iterations 0
smoothSolver:  Solving for Ux, Initial residual = 6.52355e-08, Final residual = 6.52355e-08, No Iterations 0
smoothSolver:  Solving for Uy, Initial residual = 1.42828e-07, Final residual = 1.42828e-07, No Iterations 0
smoothSolver:  Solving for Uz, Initial residual = 6.10919e-09, Final residual = 6.10919e-09, No Iterations 0
diagonal:  Solving for rhoE, Initial residual = 0, Final residual = 0, No Iterations 0
smoothSolver:  Solving for e, Initial residual = 3.55143e-09, Final residual = 3.55143e-09, No Iterations 0
smoothSolver:  Solving for omega, Initial residual = 1.11694e-06, Final residual = 1.44947e-09, No Iterations 1
smoothSolver:  Solving for k, Initial residual = 0.000259047, Final residual = 1.48435e-07, No Iterations 1
ExecutionTime = 10.9 s  ClockTime = 11 s

deltaT = 4.66503e-06
Mean and max Courant Numbers = 0.0014449 0.100036
Time = 0.000250084

diagonal:  Solving for rho, Initial residual = 0, Final residual = 0, No Iterations 0
diagonal:  Solving for rhoUx, Initial residual = 0, Final residual = 0, No Iterations 0
diagonal:  Solving for rhoUy, Initial residual = 0, Final residual = 0, No Iterations 0
diagonal:  Solving for rhoUz, Initial residual = 0, Final residual = 0, No Iterations 0
smoothSolver:  Solving for Ux, Initial residual = 6.44499e-08, Final residual = 6.44499e-08, No Iterations 0
smoothSolver:  Solving for Uy, Initial residual = 1.40524e-07, Final residual = 1.40524e-07, No Iterations 0
smoothSolver:  Solving for Uz, Initial residual = 5.96788e-09, Final residual = 5.96788e-09, No Iterations 0
diagonal:  Solving for rhoE, Initial residual = 0, Final residual = 0, No Iterations 0
smoothSolver:  Solving for e, Initial residual = 3.45553e-09, Final residual = 3.45553e-09, No Iterations 0
smoothSolver:  Solving for omega, Initial residual = 1.11502e-06, Final residual = 1.45893e-09, No Iterations 1
smoothSolver:  Solving for k, Initial residual = 0.000252178, Final residual = 1.44543e-07, No Iterations 1
ExecutionTime = 11.1 s  ClockTime = 12 s

deltaT = 4.6628e-06
Mean and max Courant Numbers = 0.00144421 0.100017
Time = 0.000254747

diagonal:  Solving for rho, Initial residual = 0, Final residual = 0, No Iterations 0
diagonal:  Solving for rhoUx, Initial residual = 0, Final residual = 0, No Iterations 0
diagonal:  Solving for rhoUy, Initial residual = 0, Final residual = 0, No Iterations 0
diagonal:  Solving for rhoUz, Initial residual = 0, Final residual = 0, No Iterations 0
smoothSolver:  Solving for Ux, Initial residual = 6.37107e-08, Final residual = 6.37107e-08, No Iterations 0
smoothSolver:  Solving for Uy, Initial residual = 1.38301e-07, Final residual = 1.38301e-07, No Iterations 0
smoothSolver:  Solving for Uz, Initial residual = 5.83298e-09, Final residual = 5.83298e-09, No Iterations 0
diagonal:  Solving for rhoE, Initial residual = 0, Final residual = 0, No Iterations 0
smoothSolver:  Solving for e, Initial residual = 3.36365e-09, Final residual = 3.36365e-09, No Iterations 0
smoothSolver:  Solving for omega, Initial residual = 1.11313e-06, Final residual = 1.46846e-09, No Iterations 1
smoothSolver:  Solving for k, Initial residual = 0.000245622, Final residual = 1.40825e-07, No Iterations 1
ExecutionTime = 11.31 s  ClockTime = 12 s

deltaT = 4.6628e-06
Mean and max Courant Numbers = 0.00144421 0.10004
Time = 0.000259409

diagonal:  Solving for rho, Initial residual = 0, Final residual = 0, No Iterations 0
diagonal:  Solving for rhoUx, Initial residual = 0, Final residual = 0, No Iterations 0
diagonal:  Solving for rhoUy, Initial residual = 0, Final residual = 0, No Iterations 0
diagonal:  Solving for rhoUz, Initial residual = 0, Final residual = 0, No Iterations 0
smoothSolver:  Solving for Ux, Initial residual = 6.30085e-08, Final residual = 6.30085e-08, No Iterations 0
smoothSolver:  Solving for Uy, Initial residual = 1.36139e-07, Final residual = 1.36139e-07, No Iterations 0
smoothSolver:  Solving for Uz, Initial residual = 5.70638e-09, Final residual = 5.70638e-09, No Iterations 0
diagonal:  Solving for rhoE, Initial residual = 0, Final residual = 0, No Iterations 0
smoothSolver:  Solving for e, Initial residual = 3.27464e-09, Final residual = 3.27464e-09, No Iterations 0
smoothSolver:  Solving for omega, Initial residual = 1.11178e-06, Final residual = 1.4793e-09, No Iterations 1
smoothSolver:  Solving for k, Initial residual = 0.000239474, Final residual = 1.374e-07, No Iterations 1
ExecutionTime = 11.5 s  ClockTime = 12 s

deltaT = 4.66057e-06
Mean and max Courant Numbers = 0.00144352 0.100009
Time = 0.00026407

diagonal:  Solving for rho, Initial residual = 0, Final residual = 0, No Iterations 0
diagonal:  Solving for rhoUx, Initial residual = 0, Final residual = 0, No Iterations 0
diagonal:  Solving for rhoUy, Initial residual = 0, Final residual = 0, No Iterations 0
diagonal:  Solving for rhoUz, Initial residual = 0, Final residual = 0, No Iterations 0
smoothSolver:  Solving for Ux, Initial residual = 6.22769e-08, Final residual = 6.22769e-08, No Iterations 0
smoothSolver:  Solving for Uy, Initial residual = 1.33902e-07, Final residual = 1.33902e-07, No Iterations 0
smoothSolver:  Solving for Uz, Initial residual = 5.58249e-09, Final residual = 5.58249e-09, No Iterations 0
diagonal:  Solving for rhoE, Initial residual = 0, Final residual = 0, No Iterations 0
smoothSolver:  Solving for e, Initial residual = 3.18635e-09, Final residual = 3.18635e-09, No Iterations 0
smoothSolver:  Solving for omega, Initial residual = 1.1099e-06, Final residual = 1.48866e-09, No Iterations 1
smoothSolver:  Solving for k, Initial residual = 0.000233481, Final residual = 1.33988e-07, No Iterations 1
ExecutionTime = 11.69 s  ClockTime = 12 s

deltaT = 4.66057e-06
Mean and max Courant Numbers = 0.00144352 0.100022
Time = 0.00026873

diagonal:  Solving for rho, Initial residual = 0, Final residual = 0, No Iterations 0
diagonal:  Solving for rhoUx, Initial residual = 0, Final residual = 0, No Iterations 0
diagonal:  Solving for rhoUy, Initial residual = 0, Final residual = 0, No Iterations 0
diagonal:  Solving for rhoUz, Initial residual = 0, Final residual = 0, No Iterations 0
smoothSolver:  Solving for Ux, Initial residual = 6.15973e-08, Final residual = 6.15973e-08, No Iterations 0
smoothSolver:  Solving for Uy, Initial residual = 1.31761e-07, Final residual = 1.31761e-07, No Iterations 0
smoothSolver:  Solving for Uz, Initial residual = 5.46631e-09, Final residual = 5.46631e-09, No Iterations 0
diagonal:  Solving for rhoE, Initial residual = 0, Final residual = 0, No Iterations 0
smoothSolver:  Solving for e, Initial residual = 3.10291e-09, Final residual = 3.10291e-09, No Iterations 0
smoothSolver:  Solving for omega, Initial residual = 1.10857e-06, Final residual = 1.49945e-09, No Iterations 1
smoothSolver:  Solving for k, Initial residual = 0.000227857, Final residual = 1.30844e-07, No Iterations 1
ExecutionTime = 11.86 s  ClockTime = 12 s

deltaT = 4.66057e-06
Mean and max Courant Numbers = 0.00144352 0.100058
Time = 0.000273391

diagonal:  Solving for rho, Initial residual = 0, Final residual = 0, No Iterations 0
diagonal:  Solving for rhoUx, Initial residual = 0, Final residual = 0, No Iterations 0
diagonal:  Solving for rhoUy, Initial residual = 0, Final residual = 0, No Iterations 0
diagonal:  Solving for rhoUz, Initial residual = 0, Final residual = 0, No Iterations 0
smoothSolver:  Solving for Ux, Initial residual = 6.09408e-08, Final residual = 6.09408e-08, No Iterations 0
smoothSolver:  Solving for Uy, Initial residual = 1.29699e-07, Final residual = 1.29699e-07, No Iterations 0
smoothSolver:  Solving for Uz, Initial residual = 5.35499e-09, Final residual = 5.35499e-09, No Iterations 0
diagonal:  Solving for rhoE, Initial residual = 0, Final residual = 0, No Iterations 0
smoothSolver:  Solving for e, Initial residual = 3.02231e-09, Final residual = 3.02231e-09, No Iterations 0
smoothSolver:  Solving for omega, Initial residual = 1.10724e-06, Final residual = 1.51021e-09, No Iterations 1
smoothSolver:  Solving for k, Initial residual = 0.000222467, Final residual = 1.27827e-07, No Iterations 1
ExecutionTime = 12.06 s  ClockTime = 12 s

deltaT = 4.65834e-06
Mean and max Courant Numbers = 0.00144283 0.100084
Time = 0.000278049

diagonal:  Solving for rho, Initial residual = 0, Final residual = 0, No Iterations 0
diagonal:  Solving for rhoUx, Initial residual = 0, Final residual = 0, No Iterations 0
diagonal:  Solving for rhoUy, Initial residual = 0, Final residual = 0, No Iterations 0
diagonal:  Solving for rhoUz, Initial residual = 0, Final residual = 0, No Iterations 0
smoothSolver:  Solving for Ux, Initial residual = 6.03007e-08, Final residual = 6.03007e-08, No Iterations 0
smoothSolver:  Solving for Uy, Initial residual = 1.27699e-07, Final residual = 1.27699e-07, No Iterations 0
smoothSolver:  Solving for Uz, Initial residual = 5.24582e-09, Final residual = 5.24582e-09, No Iterations 0
diagonal:  Solving for rhoE, Initial residual = 0, Final residual = 0, No Iterations 0
[...]
smoothSolver:  Solving for omega, Initial residual = 7.54592e-07, Final residual = 7.54592e-07, No Iterations 0
smoothSolver:  Solving for k, Initial residual = 7.31949e-06, Final residual = 5.25511e-09, No Iterations 1
ExecutionTime = 390.61 s  ClockTime = 391 s

deltaT = 5.07542e-06
Mean and max Courant Numbers = 0.00157246 0.0999694
Time = 0.00992387

diagonal:  Solving for rho, Initial residual = 0, Final residual = 0, No Iterations 0
diagonal:  Solving for rhoUx, Initial residual = 0, Final residual = 0, No Iterations 0
diagonal:  Solving for rhoUy, Initial residual = 0, Final residual = 0, No Iterations 0
diagonal:  Solving for rhoUz, Initial residual = 0, Final residual = 0, No Iterations 0
smoothSolver:  Solving for Ux, Initial residual = 7.14927e-08, Final residual = 7.14927e-08, No Iterations 0
smoothSolver:  Solving for Uy, Initial residual = 1.14856e-07, Final residual = 1.14856e-07, No Iterations 0
smoothSolver:  Solving for Uz, Initial residual = 1.39035e-09, Final residual = 1.39035e-09, No Iterations 0
diagonal:  Solving for rhoE, Initial residual = 0, Final residual = 0, No Iterations 0
smoothSolver:  Solving for e, Initial residual = 8.53013e-10, Final residual = 8.53013e-10, No Iterations 0
smoothSolver:  Solving for omega, Initial residual = 7.54316e-07, Final residual = 7.54316e-07, No Iterations 0
smoothSolver:  Solving for k, Initial residual = 7.30869e-06, Final residual = 5.24873e-09, No Iterations 1
ExecutionTime = 390.8 s  ClockTime = 391 s

deltaT = 5.07542e-06
Mean and max Courant Numbers = 0.00157246 0.0999685
Time = 0.00992894

diagonal:  Solving for rho, Initial residual = 0, Final residual = 0, No Iterations 0
diagonal:  Solving for rhoUx, Initial residual = 0, Final residual = 0, No Iterations 0
diagonal:  Solving for rhoUy, Initial residual = 0, Final residual = 0, No Iterations 0
diagonal:  Solving for rhoUz, Initial residual = 0, Final residual = 0, No Iterations 0
smoothSolver:  Solving for Ux, Initial residual = 7.15098e-08, Final residual = 7.15098e-08, No Iterations 0
smoothSolver:  Solving for Uy, Initial residual = 1.14928e-07, Final residual = 1.14928e-07, No Iterations 0
smoothSolver:  Solving for Uz, Initial residual = 1.39077e-09, Final residual = 1.39077e-09, No Iterations 0
diagonal:  Solving for rhoE, Initial residual = 0, Final residual = 0, No Iterations 0
smoothSolver:  Solving for e, Initial residual = 8.53565e-10, Final residual = 8.53565e-10, No Iterations 0
smoothSolver:  Solving for omega, Initial residual = 7.5399e-07, Final residual = 7.5399e-07, No Iterations 0
smoothSolver:  Solving for k, Initial residual = 7.29797e-06, Final residual = 5.24332e-09, No Iterations 1
ExecutionTime = 391 s  ClockTime = 391 s

deltaT = 5.07542e-06
Mean and max Courant Numbers = 0.00157246 0.0999706
Time = 0.00993402

diagonal:  Solving for rho, Initial residual = 0, Final residual = 0, No Iterations 0
diagonal:  Solving for rhoUx, Initial residual = 0, Final residual = 0, No Iterations 0
diagonal:  Solving for rhoUy, Initial residual = 0, Final residual = 0, No Iterations 0
diagonal:  Solving for rhoUz, Initial residual = 0, Final residual = 0, No Iterations 0
smoothSolver:  Solving for Ux, Initial residual = 7.15333e-08, Final residual = 7.15333e-08, No Iterations 0
smoothSolver:  Solving for Uy, Initial residual = 1.14986e-07, Final residual = 1.14986e-07, No Iterations 0
smoothSolver:  Solving for Uz, Initial residual = 1.3912e-09, Final residual = 1.3912e-09, No Iterations 0
diagonal:  Solving for rhoE, Initial residual = 0, Final residual = 0, No Iterations 0
smoothSolver:  Solving for e, Initial residual = 8.54096e-10, Final residual = 8.54096e-10, No Iterations 0
smoothSolver:  Solving for omega, Initial residual = 7.53729e-07, Final residual = 7.53729e-07, No Iterations 0
smoothSolver:  Solving for k, Initial residual = 7.28718e-06, Final residual = 5.23743e-09, No Iterations 1
ExecutionTime = 391.22 s  ClockTime = 392 s

deltaT = 5.07542e-06
Mean and max Courant Numbers = 0.00157246 0.0999773
Time = 0.00993909

diagonal:  Solving for rho, Initial residual = 0, Final residual = 0, No Iterations 0
diagonal:  Solving for rhoUx, Initial residual = 0, Final residual = 0, No Iterations 0
diagonal:  Solving for rhoUy, Initial residual = 0, Final residual = 0, No Iterations 0
diagonal:  Solving for rhoUz, Initial residual = 0, Final residual = 0, No Iterations 0
smoothSolver:  Solving for Ux, Initial residual = 7.15545e-08, Final residual = 7.15545e-08, No Iterations 0
smoothSolver:  Solving for Uy, Initial residual = 1.15052e-07, Final residual = 1.15052e-07, No Iterations 0
smoothSolver:  Solving for Uz, Initial residual = 1.39163e-09, Final residual = 1.39163e-09, No Iterations 0
diagonal:  Solving for rhoE, Initial residual = 0, Final residual = 0, No Iterations 0
smoothSolver:  Solving for e, Initial residual = 8.54635e-10, Final residual = 8.54635e-10, No Iterations 0
smoothSolver:  Solving for omega, Initial residual = 7.53394e-07, Final residual = 7.53394e-07, No Iterations 0
smoothSolver:  Solving for k, Initial residual = 7.2764e-06, Final residual = 5.23111e-09, No Iterations 1
ExecutionTime = 391.41 s  ClockTime = 392 s

deltaT = 5.07542e-06
Mean and max Courant Numbers = 0.00157246 0.0999785
Time = 0.00994417

diagonal:  Solving for rho, Initial residual = 0, Final residual = 0, No Iterations 0
diagonal:  Solving for rhoUx, Initial residual = 0, Final residual = 0, No Iterations 0
diagonal:  Solving for rhoUy, Initial residual = 0, Final residual = 0, No Iterations 0
diagonal:  Solving for rhoUz, Initial residual = 0, Final residual = 0, No Iterations 0
smoothSolver:  Solving for Ux, Initial residual = 7.15774e-08, Final residual = 7.15774e-08, No Iterations 0
smoothSolver:  Solving for Uy, Initial residual = 1.15112e-07, Final residual = 1.15112e-07, No Iterations 0
smoothSolver:  Solving for Uz, Initial residual = 1.39206e-09, Final residual = 1.39206e-09, No Iterations 0
diagonal:  Solving for rhoE, Initial residual = 0, Final residual = 0, No Iterations 0
smoothSolver:  Solving for e, Initial residual = 8.55165e-10, Final residual = 8.55165e-10, No Iterations 0
smoothSolver:  Solving for omega, Initial residual = 7.53126e-07, Final residual = 7.53126e-07, No Iterations 0
smoothSolver:  Solving for k, Initial residual = 7.26568e-06, Final residual = 5.22565e-09, No Iterations 1
ExecutionTime = 391.58 s  ClockTime = 392 s

deltaT = 5.07542e-06
Mean and max Courant Numbers = 0.00157246 0.0999695
Time = 0.00994925

diagonal:  Solving for rho, Initial residual = 0, Final residual = 0, No Iterations 0
diagonal:  Solving for rhoUx, Initial residual = 0, Final residual = 0, No Iterations 0
diagonal:  Solving for rhoUy, Initial residual = 0, Final residual = 0, No Iterations 0
diagonal:  Solving for rhoUz, Initial residual = 0, Final residual = 0, No Iterations 0
smoothSolver:  Solving for Ux, Initial residual = 7.15919e-08, Final residual = 7.15919e-08, No Iterations 0
smoothSolver:  Solving for Uy, Initial residual = 1.15173e-07, Final residual = 1.15173e-07, No Iterations 0
smoothSolver:  Solving for Uz, Initial residual = 1.39248e-09, Final residual = 1.39248e-09, No Iterations 0
diagonal:  Solving for rhoE, Initial residual = 0, Final residual = 0, No Iterations 0
smoothSolver:  Solving for e, Initial residual = 8.55674e-10, Final residual = 8.55674e-10, No Iterations 0
smoothSolver:  Solving for omega, Initial residual = 7.52806e-07, Final residual = 7.52806e-07, No Iterations 0
smoothSolver:  Solving for k, Initial residual = 7.25489e-06, Final residual = 5.22001e-09, No Iterations 1
ExecutionTime = 391.75 s  ClockTime = 392 s

deltaT = 5.07542e-06
Mean and max Courant Numbers = 0.00157246 0.0999738
Time = 0.00995432

diagonal:  Solving for rho, Initial residual = 0, Final residual = 0, No Iterations 0
diagonal:  Solving for rhoUx, Initial residual = 0, Final residual = 0, No Iterations 0
diagonal:  Solving for rhoUy, Initial residual = 0, Final residual = 0, No Iterations 0
diagonal:  Solving for rhoUz, Initial residual = 0, Final residual = 0, No Iterations 0
smoothSolver:  Solving for Ux, Initial residual = 7.16123e-08, Final residual = 7.16123e-08, No Iterations 0
smoothSolver:  Solving for Uy, Initial residual = 1.15215e-07, Final residual = 1.15215e-07, No Iterations 0
smoothSolver:  Solving for Uz, Initial residual = 1.3929e-09, Final residual = 1.3929e-09, No Iterations 0
diagonal:  Solving for rhoE, Initial residual = 0, Final residual = 0, No Iterations 0
smoothSolver:  Solving for e, Initial residual = 8.56194e-10, Final residual = 8.56194e-10, No Iterations 0
smoothSolver:  Solving for omega, Initial residual = 7.52517e-07, Final residual = 7.52517e-07, No Iterations 0
smoothSolver:  Solving for k, Initial residual = 7.24423e-06, Final residual = 5.21408e-09, No Iterations 1
ExecutionTime = 391.93 s  ClockTime = 392 s

deltaT = 5.07542e-06
Mean and max Courant Numbers = 0.00157246 0.0999763
Time = 0.0099594

diagonal:  Solving for rho, Initial residual = 0, Final residual = 0, No Iterations 0
diagonal:  Solving for rhoUx, Initial residual = 0, Final residual = 0, No Iterations 0
diagonal:  Solving for rhoUy, Initial residual = 0, Final residual = 0, No Iterations 0
diagonal:  Solving for rhoUz, Initial residual = 0, Final residual = 0, No Iterations 0
smoothSolver:  Solving for Ux, Initial residual = 7.16371e-08, Final residual = 7.16371e-08, No Iterations 0
smoothSolver:  Solving for Uy, Initial residual = 1.15273e-07, Final residual = 1.15273e-07, No Iterations 0
smoothSolver:  Solving for Uz, Initial residual = 1.39333e-09, Final residual = 1.39333e-09, No Iterations 0
diagonal:  Solving for rhoE, Initial residual = 0, Final residual = 0, No Iterations 0
smoothSolver:  Solving for e, Initial residual = 8.56717e-10, Final residual = 8.56717e-10, No Iterations 0
smoothSolver:  Solving for omega, Initial residual = 7.52228e-07, Final residual = 7.52228e-07, No Iterations 0
smoothSolver:  Solving for k, Initial residual = 7.23343e-06, Final residual = 5.20809e-09, No Iterations 1
ExecutionTime = 392.1 s  ClockTime = 393 s

deltaT = 5.07542e-06
Mean and max Courant Numbers = 0.00157246 0.0999763
Time = 0.00996447

diagonal:  Solving for rho, Initial residual = 0, Final residual = 0, No Iterations 0
diagonal:  Solving for rhoUx, Initial residual = 0, Final residual = 0, No Iterations 0
diagonal:  Solving for rhoUy, Initial residual = 0, Final residual = 0, No Iterations 0
diagonal:  Solving for rhoUz, Initial residual = 0, Final residual = 0, No Iterations 0
smoothSolver:  Solving for Ux, Initial residual = 7.16562e-08, Final residual = 7.16562e-08, No Iterations 0
smoothSolver:  Solving for Uy, Initial residual = 1.15333e-07, Final residual = 1.15333e-07, No Iterations 0
smoothSolver:  Solving for Uz, Initial residual = 1.39376e-09, Final residual = 1.39376e-09, No Iterations 0
diagonal:  Solving for rhoE, Initial residual = 0, Final residual = 0, No Iterations 0
smoothSolver:  Solving for e, Initial residual = 8.57223e-10, Final residual = 8.57223e-10, No Iterations 0
smoothSolver:  Solving for omega, Initial residual = 7.51916e-07, Final residual = 7.51916e-07, No Iterations 0
smoothSolver:  Solving for k, Initial residual = 7.22276e-06, Final residual = 5.20234e-09, No Iterations 1
ExecutionTime = 392.28 s  ClockTime = 393 s

deltaT = 5.07542e-06
Mean and max Courant Numbers = 0.00157247 0.0999833
Time = 0.00996955

diagonal:  Solving for rho, Initial residual = 0, Final residual = 0, No Iterations 0
diagonal:  Solving for rhoUx, Initial residual = 0, Final residual = 0, No Iterations 0
diagonal:  Solving for rhoUy, Initial residual = 0, Final residual = 0, No Iterations 0
diagonal:  Solving for rhoUz, Initial residual = 0, Final residual = 0, No Iterations 0
smoothSolver:  Solving for Ux, Initial residual = 7.16848e-08, Final residual = 7.16848e-08, No Iterations 0
smoothSolver:  Solving for Uy, Initial residual = 1.15388e-07, Final residual = 1.15388e-07, No Iterations 0
smoothSolver:  Solving for Uz, Initial residual = 1.39419e-09, Final residual = 1.39419e-09, No Iterations 0
diagonal:  Solving for rhoE, Initial residual = 0, Final residual = 0, No Iterations 0
smoothSolver:  Solving for e, Initial residual = 8.57743e-10, Final residual = 8.57743e-10, No Iterations 0
smoothSolver:  Solving for omega, Initial residual = 7.51618e-07, Final residual = 7.51618e-07, No Iterations 0
smoothSolver:  Solving for k, Initial residual = 7.21202e-06, Final residual = 5.19662e-09, No Iterations 1
ExecutionTime = 392.46 s  ClockTime = 393 s

deltaT = 5.07542e-06
Mean and max Courant Numbers = 0.00157247 0.0999841
Time = 0.00997462

diagonal:  Solving for rho, Initial residual = 0, Final residual = 0, No Iterations 0
diagonal:  Solving for rhoUx, Initial residual = 0, Final residual = 0, No Iterations 0
diagonal:  Solving for rhoUy, Initial residual = 0, Final residual = 0, No Iterations 0
diagonal:  Solving for rhoUz, Initial residual = 0, Final residual = 0, No Iterations 0
smoothSolver:  Solving for Ux, Initial residual = 7.17128e-08, Final residual = 7.17128e-08, No Iterations 0
smoothSolver:  Solving for Uy, Initial residual = 1.15464e-07, Final residual = 1.15464e-07, No Iterations 0
smoothSolver:  Solving for Uz, Initial residual = 1.39462e-09, Final residual = 1.39462e-09, No Iterations 0
diagonal:  Solving for rhoE, Initial residual = 0, Final residual = 0, No Iterations 0
smoothSolver:  Solving for e, Initial residual = 8.5825e-10, Final residual = 8.5825e-10, No Iterations 0
smoothSolver:  Solving for omega, Initial residual = 7.51329e-07, Final residual = 7.51329e-07, No Iterations 0
smoothSolver:  Solving for k, Initial residual = 7.2013e-06, Final residual = 5.19055e-09, No Iterations 1
ExecutionTime = 392.64 s  ClockTime = 393 s

deltaT = 5.07542e-06
Mean and max Courant Numbers = 0.00157247 0.0999815
Time = 0.0099797

diagonal:  Solving for rho, Initial residual = 0, Final residual = 0, No Iterations 0
diagonal:  Solving for rhoUx, Initial residual = 0, Final residual = 0, No Iterations 0
diagonal:  Solving for rhoUy, Initial residual = 0, Final residual = 0, No Iterations 0
diagonal:  Solving for rhoUz, Initial residual = 0, Final residual = 0, No Iterations 0
smoothSolver:  Solving for Ux, Initial residual = 7.17276e-08, Final residual = 7.17276e-08, No Iterations 0
smoothSolver:  Solving for Uy, Initial residual = 1.15519e-07, Final residual = 1.15519e-07, No Iterations 0
smoothSolver:  Solving for Uz, Initial residual = 1.39506e-09, Final residual = 1.39506e-09, No Iterations 0
diagonal:  Solving for rhoE, Initial residual = 0, Final residual = 0, No Iterations 0
smoothSolver:  Solving for e, Initial residual = 8.58767e-10, Final residual = 8.58767e-10, No Iterations 0
smoothSolver:  Solving for omega, Initial residual = 7.51016e-07, Final residual = 7.51016e-07, No Iterations 0
smoothSolver:  Solving for k, Initial residual = 7.19061e-06, Final residual = 5.18464e-09, No Iterations 1
ExecutionTime = 392.83 s  ClockTime = 393 s

deltaT = 5.07542e-06
Mean and max Courant Numbers = 0.00157247 0.0999835
Time = 0.00998477

diagonal:  Solving for rho, Initial residual = 0, Final residual = 0, No Iterations 0
diagonal:  Solving for rhoUx, Initial residual = 0, Final residual = 0, No Iterations 0
diagonal:  Solving for rhoUy, Initial residual = 0, Final residual = 0, No Iterations 0
diagonal:  Solving for rhoUz, Initial residual = 0, Final residual = 0, No Iterations 0
smoothSolver:  Solving for Ux, Initial residual = 7.17606e-08, Final residual = 7.17606e-08, No Iterations 0
smoothSolver:  Solving for Uy, Initial residual = 1.1557e-07, Final residual = 1.1557e-07, No Iterations 0
smoothSolver:  Solving for Uz, Initial residual = 1.39549e-09, Final residual = 1.39549e-09, No Iterations 0
diagonal:  Solving for rhoE, Initial residual = 0, Final residual = 0, No Iterations 0
smoothSolver:  Solving for e, Initial residual = 8.59276e-10, Final residual = 8.59276e-10, No Iterations 0
smoothSolver:  Solving for omega, Initial residual = 7.50732e-07, Final residual = 7.50732e-07, No Iterations 0
smoothSolver:  Solving for k, Initial residual = 7.17992e-06, Final residual = 5.17915e-09, No Iterations 1
ExecutionTime = 393.03 s  ClockTime = 393 s

deltaT = 5.07542e-06
Mean and max Courant Numbers = 0.00157247 0.0999759
Time = 0.00998985

diagonal:  Solving for rho, Initial residual = 0, Final residual = 0, No Iterations 0
diagonal:  Solving for rhoUx, Initial residual = 0, Final residual = 0, No Iterations 0
diagonal:  Solving for rhoUy, Initial residual = 0, Final residual = 0, No Iterations 0
diagonal:  Solving for rhoUz, Initial residual = 0, Final residual = 0, No Iterations 0
smoothSolver:  Solving for Ux, Initial residual = 7.17771e-08, Final residual = 7.17771e-08, No Iterations 0
smoothSolver:  Solving for Uy, Initial residual = 1.15644e-07, Final residual = 1.15644e-07, No Iterations 0
smoothSolver:  Solving for Uz, Initial residual = 1.39593e-09, Final residual = 1.39593e-09, No Iterations 0
diagonal:  Solving for rhoE, Initial residual = 0, Final residual = 0, No Iterations 0
smoothSolver:  Solving for e, Initial residual = 8.59789e-10, Final residual = 8.59789e-10, No Iterations 0
smoothSolver:  Solving for omega, Initial residual = 7.50406e-07, Final residual = 7.50406e-07, No Iterations 0
smoothSolver:  Solving for k, Initial residual = 7.16925e-06, Final residual = 5.17312e-09, No Iterations 1
ExecutionTime = 393.23 s  ClockTime = 394 s

deltaT = 5.07542e-06
Mean and max Courant Numbers = 0.00157247 0.0999803
Time = 0.00999492

diagonal:  Solving for rho, Initial residual = 0, Final residual = 0, No Iterations 0
diagonal:  Solving for rhoUx, Initial residual = 0, Final residual = 0, No Iterations 0
diagonal:  Solving for rhoUy, Initial residual = 0, Final residual = 0, No Iterations 0
diagonal:  Solving for rhoUz, Initial residual = 0, Final residual = 0, No Iterations 0
smoothSolver:  Solving for Ux, Initial residual = 7.18053e-08, Final residual = 7.18053e-08, No Iterations 0
smoothSolver:  Solving for Uy, Initial residual = 1.15671e-07, Final residual = 1.15671e-07, No Iterations 0
smoothSolver:  Solving for Uz, Initial residual = 1.39636e-09, Final residual = 1.39636e-09, No Iterations 0
diagonal:  Solving for rhoE, Initial residual = 0, Final residual = 0, No Iterations 0
smoothSolver:  Solving for e, Initial residual = 8.60293e-10, Final residual = 8.60293e-10, No Iterations 0
smoothSolver:  Solving for omega, Initial residual = 7.50125e-07, Final residual = 7.50125e-07, No Iterations 0
smoothSolver:  Solving for k, Initial residual = 7.15857e-06, Final residual = 5.16723e-09, No Iterations 1
ExecutionTime = 393.4 s  ClockTime = 394 s

deltaT = 5.07542e-06
Mean and max Courant Numbers = 0.00157247 0.0999827
Time = 0.01

diagonal:  Solving for rho, Initial residual = 0, Final residual = 0, No Iterations 0
diagonal:  Solving for rhoUx, Initial residual = 0, Final residual = 0, No Iterations 0
diagonal:  Solving for rhoUy, Initial residual = 0, Final residual = 0, No Iterations 0
diagonal:  Solving for rhoUz, Initial residual = 0, Final residual = 0, No Iterations 0
smoothSolver:  Solving for Ux, Initial residual = 7.18215e-08, Final residual = 7.18215e-08, No Iterations 0
smoothSolver:  Solving for Uy, Initial residual = 1.15721e-07, Final residual = 1.15721e-07, No Iterations 0
smoothSolver:  Solving for Uz, Initial residual = 1.3968e-09, Final residual = 1.3968e-09, No Iterations 0
diagonal:  Solving for rhoE, Initial residual = 0, Final residual = 0, No Iterations 0
smoothSolver:  Solving for e, Initial residual = 8.60805e-10, Final residual = 8.60805e-10, No Iterations 0
smoothSolver:  Solving for omega, Initial residual = 7.49816e-07, Final residual = 7.49816e-07, No Iterations 0
smoothSolver:  Solving for k, Initial residual = 7.14793e-06, Final residual = 5.16145e-09, No Iterations 1
ExecutionTime = 393.7 s  ClockTime = 394 s

End

Finalising parallel run
