/*---------------------------------------------------------------------------*\
| =========                 |                                                 |
| \\      /  F ield         | OpenFOAM: The Open Source CFD Toolbox           |
|  \\    /   O peration     | Version:  2412                                  |
|   \\  /    A nd           | Website:  www.openfoam.com                      |
|    \\/     M anipulation  |                                                 |
\*---------------------------------------------------------------------------*/
Build  : _e5c6ccc3-20250814 OPENFOAM=2412 patch=250814 version=2412
Arch   : "LSB;label=32;scalar=64"
Exec   : simpleFoam -parallel
Date   : Jan 03 2026
Time   : 15:09:04
Host   : LAPTOP-FVD4ED85
PID    : 11888
I/O    : uncollated
Case   : /home/ericy/Rocket_CFD_ML/openfoam/combined_test_workflow
nProcs : 4
Hosts  :
(
    (LAPTOP-FVD4ED85 4)
)
Pstream initialized with:
    floatTransfer      : false
    maxCommsSize       : 0
    nProcsSimpleSum    : 0
    nonBlockingExchange: 0 (tuning: 0)
    exchange algorithm : 0
    commsType          : nonBlocking
    polling iterations : 0
trapFpe: Floating point exception trapping enabled (FOAM_SIGFPE).
fileModificationChecking : Monitoring run-time modified files using timeStampMaster (fileModificationSkew 5, maxFileModificationPolls 20)
allowSystemOperations : Allowing user-supplied system call operations

// * * * * * * * * * * * * * * * * * * * * * * * * * * * * * * * * * * * * * //
Create time

Create mesh for time = 0


SIMPLE: convergence criteria
    field p	 tolerance 0.0001
    field U	 tolerance 0.0001

Reading field p

Reading field U

Reading/calculating face flux field phi

Selecting incompressible transport model Newtonian
Selecting turbulence model type RAS
Selecting RAS turbulence model kOmegaSST
Selecting patchDistMethod meshWave
RAS
{
    model           kOmegaSST;
    turbulence      on;
    printCoeffs     on;
    alphaK1         0.85;
    alphaK2         1;
    alphaOmega1     0.5;
    alphaOmega2     0.856;
    gamma1          0.555556;
    gamma2          0.44;
    beta1           0.075;
    beta2           0.0828;
    betaStar        0.09;
    a1              0.31;
    b1              1;
    c1              10;
    F3              false;
    decayControl    false;
    kInf            0;
    omegaInf        0;
}

No MRF models present

No finite volume options present

Starting time loop

forceCoeffs forces:
    p: p
    U: U
    rho: rhoInf
    Freestream density (rhoInf) set to 1.225
    Not including porosity effects
    magUInf: 500
    lRef   : 3
    Aref   : 0.1
    rhoInf : 1.225
    Selecting all coefficients
    - Drag force: Cd
    - Drag force front: Cd(f)
    - Drag force rear: Cd(r)
    - Lift force: Cl
    - Lift force front: Cl(f)
    - Lift force rear: Cl(r)
    - Pitch moment: CmPitch
    - Roll moment: CmRoll
    - Yaw moment: CmYaw
    - Side force: Cs
    - Side force front: Cs(f)
    - Side force rear: Cs(r)


Time = 1

smoothSolver:  Solving for Ux, Initial residual = 0.355574, Final residual = 0.0196008, No Iterations 2
smoothSolver:  Solving for Uy, Initial residual = 0.355574, Final residual = 0.0196013, No Iterations 2
smoothSolver:  Solving for Uz, Initial residual = 0.274988, Final residual = 0.0128091, No Iterations 3
GAMG:  Solving for p, Initial residual = 0.00134486, Final residual = 6.15107e-06, No Iterations 4
time step continuity errors : sum local = 0.0532491, global = 0.00445573, cumulative = 0.00445573
smoothSolver:  Solving for omega, Initial residual = 0.0126283, Final residual = 0.00123706, No Iterations 2
smoothSolver:  Solving for k, Initial residual = 1, Final residual = 0.0807934, No Iterations 2
ExecutionTime = 0.75 s  ClockTime = 1 s

Time = 2

smoothSolver:  Solving for Ux, Initial residual = 0.238891, Final residual = 0.0092186, No Iterations 2
smoothSolver:  Solving for Uy, Initial residual = 0.23888, Final residual = 0.0092214, No Iterations 2
smoothSolver:  Solving for Uz, Initial residual = 0.181649, Final residual = 0.0170379, No Iterations 2
GAMG:  Solving for p, Initial residual = 0.0430419, Final residual = 0.000192293, No Iterations 4
time step continuity errors : sum local = 0.0717264, global = -0.00583869, cumulative = -0.00138296
smoothSolver:  Solving for omega, Initial residual = 0.0109695, Final residual = 0.000994039, No Iterations 2
smoothSolver:  Solving for k, Initial residual = 0.427857, Final residual = 0.0274932, No Iterations 2
ExecutionTime = 1.06 s  ClockTime = 1 s

Time = 3

smoothSolver:  Solving for Ux, Initial residual = 0.182045, Final residual = 0.0054975, No Iterations 2
smoothSolver:  Solving for Uy, Initial residual = 0.18205, Final residual = 0.00550108, No Iterations 2
smoothSolver:  Solving for Uz, Initial residual = 0.144309, Final residual = 0.0113148, No Iterations 2
GAMG:  Solving for p, Initial residual = 0.0897815, Final residual = 0.000851889, No Iterations 3
time step continuity errors : sum local = 0.176159, global = 0.0769346, cumulative = 0.0755517
smoothSolver:  Solving for omega, Initial residual = 0.00898663, Final residual = 0.00081161, No Iterations 2
smoothSolver:  Solving for k, Initial residual = 0.272189, Final residual = 0.0142808, No Iterations 2
ExecutionTime = 1.38 s  ClockTime = 2 s

Time = 4

smoothSolver:  Solving for Ux, Initial residual = 0.163956, Final residual = 0.00401788, No Iterations 2
smoothSolver:  Solving for Uy, Initial residual = 0.16377, Final residual = 0.00402247, No Iterations 2
smoothSolver:  Solving for Uz, Initial residual = 0.109581, Final residual = 0.00820439, No Iterations 2
GAMG:  Solving for p, Initial residual = 0.146028, Final residual = 0.00102372, No Iterations 3
time step continuity errors : sum local = 0.146001, global = 0.066019, cumulative = 0.141571
smoothSolver:  Solving for omega, Initial residual = 0.00703969, Final residual = 0.000659259, No Iterations 2
smoothSolver:  Solving for k, Initial residual = 0.187035, Final residual = 0.00885424, No Iterations 2
ExecutionTime = 1.69 s  ClockTime = 2 s

Time = 5

smoothSolver:  Solving for Ux, Initial residual = 0.147299, Final residual = 0.00319699, No Iterations 2
smoothSolver:  Solving for Uy, Initial residual = 0.147039, Final residual = 0.00319487, No Iterations 2
smoothSolver:  Solving for Uz, Initial residual = 0.0914003, Final residual = 0.00617359, No Iterations 2
GAMG:  Solving for p, Initial residual = 0.207341, Final residual = 0.00112152, No Iterations 3
time step continuity errors : sum local = 0.119582, global = 0.0483606, cumulative = 0.189931
smoothSolver:  Solving for omega, Initial residual = 0.00575619, Final residual = 0.000553524, No Iterations 2
smoothSolver:  Solving for k, Initial residual = 0.135946, Final residual = 0.00603136, No Iterations 2
ExecutionTime = 2.01 s  ClockTime = 2 s

Time = 6

smoothSolver:  Solving for Ux, Initial residual = 0.124567, Final residual = 0.00258152, No Iterations 2
smoothSolver:  Solving for Uy, Initial residual = 0.124313, Final residual = 0.00257556, No Iterations 2
smoothSolver:  Solving for Uz, Initial residual = 0.0801633, Final residual = 0.00493329, No Iterations 2
GAMG:  Solving for p, Initial residual = 0.253349, Final residual = 0.00097741, No Iterations 3
time step continuity errors : sum local = 0.0890798, global = 0.0212463, cumulative = 0.211178
smoothSolver:  Solving for omega, Initial residual = 0.0046362, Final residual = 0.000189375, No Iterations 3
smoothSolver:  Solving for k, Initial residual = 0.104589, Final residual = 0.00428054, No Iterations 2
ExecutionTime = 2.35 s  ClockTime = 3 s

Time = 7

smoothSolver:  Solving for Ux, Initial residual = 0.109564, Final residual = 0.0104647, No Iterations 1
smoothSolver:  Solving for Uy, Initial residual = 0.109376, Final residual = 0.0104468, No Iterations 1
smoothSolver:  Solving for Uz, Initial residual = 0.07265, Final residual = 0.00412228, No Iterations 2
GAMG:  Solving for p, Initial residual = 0.280451, Final residual = 0.000997158, No Iterations 3
time step continuity errors : sum local = 0.0842408, global = 0.00762142, cumulative = 0.218799
smoothSolver:  Solving for omega, Initial residual = 0.00386049, Final residual = 0.000160485, No Iterations 3
smoothSolver:  Solving for k, Initial residual = 0.0901447, Final residual = 0.00313551, No Iterations 2
ExecutionTime = 2.65 s  ClockTime = 3 s

Time = 8

smoothSolver:  Solving for Ux, Initial residual = 0.0980733, Final residual = 0.00914208, No Iterations 1
smoothSolver:  Solving for Uy, Initial residual = 0.0980086, Final residual = 0.00913833, No Iterations 1
smoothSolver:  Solving for Uz, Initial residual = 0.0665934, Final residual = 0.00356999, No Iterations 2
GAMG:  Solving for p, Initial residual = 0.286092, Final residual = 0.00110686, No Iterations 3
time step continuity errors : sum local = 0.0931689, global = 0.00620292, cumulative = 0.225002
smoothSolver:  Solving for omega, Initial residual = 0.00350562, Final residual = 0.00033261, No Iterations 2
smoothSolver:  Solving for k, Initial residual = 0.0884702, Final residual = 0.00245822, No Iterations 2
ExecutionTime = 2.95 s  ClockTime = 3 s

Time = 9

smoothSolver:  Solving for Ux, Initial residual = 0.0909355, Final residual = 0.00824165, No Iterations 1
smoothSolver:  Solving for Uy, Initial residual = 0.0909986, Final residual = 0.00824955, No Iterations 1
smoothSolver:  Solving for Uz, Initial residual = 0.0616359, Final residual = 0.00315366, No Iterations 2
GAMG:  Solving for p, Initial residual = 0.282871, Final residual = 0.000920836, No Iterations 3
time step continuity errors : sum local = 0.079158, global = 0.0131914, cumulative = 0.238193
smoothSolver:  Solving for omega, Initial residual = 0.0034533, Final residual = 0.00030444, No Iterations 2
smoothSolver:  Solving for k, Initial residual = 0.0940733, Final residual = 0.00222421, No Iterations 2
ExecutionTime = 3.27 s  ClockTime = 3 s

Time = 10

smoothSolver:  Solving for Ux, Initial residual = 0.0869176, Final residual = 0.00760484, No Iterations 1
smoothSolver:  Solving for Uy, Initial residual = 0.0870375, Final residual = 0.00761733, No Iterations 1
smoothSolver:  Solving for Uz, Initial residual = 0.0578741, Final residual = 0.0028206, No Iterations 2
GAMG:  Solving for p, Initial residual = 0.270143, Final residual = 0.000953177, No Iterations 3
time step continuity errors : sum local = 0.0867681, global = 0.0246971, cumulative = 0.26289
smoothSolver:  Solving for omega, Initial residual = 0.00337979, Final residual = 0.000279614, No Iterations 2
smoothSolver:  Solving for k, Initial residual = 0.100921, Final residual = 0.00212957, No Iterations 2
ExecutionTime = 3.6 s  ClockTime = 4 s

Time = 11

smoothSolver:  Solving for Ux, Initial residual = 0.0835568, Final residual = 0.00708546, No Iterations 1
smoothSolver:  Solving for Uy, Initial residual = 0.0837329, Final residual = 0.00709759, No Iterations 1
smoothSolver:  Solving for Uz, Initial residual = 0.0545455, Final residual = 0.0025446, No Iterations 2
GAMG:  Solving for p, Initial residual = 0.244444, Final residual = 0.000957948, No Iterations 3
time step continuity errors : sum local = 0.0979132, global = 0.0357158, cumulative = 0.298606
smoothSolver:  Solving for omega, Initial residual = 0.00330385, Final residual = 0.000261809, No Iterations 2
smoothSolver:  Solving for k, Initial residual = 0.106787, Final residual = 0.00211517, No Iterations 2
ExecutionTime = 3.91 s  ClockTime = 4 s

Time = 12

smoothSolver:  Solving for Ux, Initial residual = 0.0803588, Final residual = 0.00663675, No Iterations 1
smoothSolver:  Solving for Uy, Initial residual = 0.0805527, Final residual = 0.00665306, No Iterations 1
smoothSolver:  Solving for Uz, Initial residual = 0.0511278, Final residual = 0.00230399, No Iterations 2
GAMG:  Solving for p, Initial residual = 0.228724, Final residual = 0.00100149, No Iterations 3
time step continuity errors : sum local = 0.111591, global = 0.042667, cumulative = 0.341273
smoothSolver:  Solving for omega, Initial residual = 0.00324264, Final residual = 0.000253473, No Iterations 2
smoothSolver:  Solving for k, Initial residual = 0.111025, Final residual = 0.00232934, No Iterations 2
ExecutionTime = 4.23 s  ClockTime = 4 s

Time = 13

smoothSolver:  Solving for Ux, Initial residual = 0.0772065, Final residual = 0.00621695, No Iterations 1
smoothSolver:  Solving for Uy, Initial residual = 0.0773888, Final residual = 0.00623578, No Iterations 1
smoothSolver:  Solving for Uz, Initial residual = 0.0478199, Final residual = 0.00208724, No Iterations 2
GAMG:  Solving for p, Initial residual = 0.218928, Final residual = 0.00107707, No Iterations 3
time step continuity errors : sum local = 0.127295, global = 0.0448761, cumulative = 0.386149
smoothSolver:  Solving for omega, Initial residual = 0.00314144, Final residual = 0.00024593, No Iterations 2
smoothSolver:  Solving for k, Initial residual = 0.112452, Final residual = 0.00261762, No Iterations 2
ExecutionTime = 4.53 s  ClockTime = 5 s

Time = 14

smoothSolver:  Solving for Ux, Initial residual = 0.0736816, Final residual = 0.00583672, No Iterations 1
smoothSolver:  Solving for Uy, Initial residual = 0.0738287, Final residual = 0.00585618, No Iterations 1
smoothSolver:  Solving for Uz, Initial residual = 0.0451444, Final residual = 0.00189312, No Iterations 2
GAMG:  Solving for p, Initial residual = 0.212551, Final residual = 0.00114935, No Iterations 3
time step continuity errors : sum local = 0.141255, global = 0.0454487, cumulative = 0.431598
smoothSolver:  Solving for omega, Initial residual = 0.003041, Final residual = 0.000238268, No Iterations 2
smoothSolver:  Solving for k, Initial residual = 0.113093, Final residual = 0.00300625, No Iterations 2
ExecutionTime = 4.84 s  ClockTime = 5 s

Time = 15

smoothSolver:  Solving for Ux, Initial residual = 0.0701192, Final residual = 0.00546761, No Iterations 1
smoothSolver:  Solving for Uy, Initial residual = 0.0702274, Final residual = 0.00548546, No Iterations 1
smoothSolver:  Solving for Uz, Initial residual = 0.0430346, Final residual = 0.00173378, No Iterations 2
GAMG:  Solving for p, Initial residual = 0.208712, Final residual = 0.00113079, No Iterations 3
time step continuity errors : sum local = 0.141765, global = 0.0402415, cumulative = 0.47184
smoothSolver:  Solving for omega, Initial residual = 0.00295942, Final residual = 0.000233149, No Iterations 2
smoothSolver:  Solving for k, Initial residual = 0.113447, Final residual = 0.003406, No Iterations 2
ExecutionTime = 5.15 s  ClockTime = 5 s

Time = 16

smoothSolver:  Solving for Ux, Initial residual = 0.0666785, Final residual = 0.00511078, No Iterations 1
smoothSolver:  Solving for Uy, Initial residual = 0.0667536, Final residual = 0.00512394, No Iterations 1
smoothSolver:  Solving for Uz, Initial residual = 0.0411394, Final residual = 0.00161084, No Iterations 2
GAMG:  Solving for p, Initial residual = 0.206617, Final residual = 0.00101663, No Iterations 3
time step continuity errors : sum local = 0.128076, global = 0.0267319, cumulative = 0.498571
smoothSolver:  Solving for omega, Initial residual = 0.00289142, Final residual = 0.000225591, No Iterations 2
smoothSolver:  Solving for k, Initial residual = 0.113735, Final residual = 0.00375132, No Iterations 2
ExecutionTime = 5.47 s  ClockTime = 6 s

Time = 17

smoothSolver:  Solving for Ux, Initial residual = 0.0637518, Final residual = 0.00479922, No Iterations 1
smoothSolver:  Solving for Uy, Initial residual = 0.0638091, Final residual = 0.00481206, No Iterations 1
smoothSolver:  Solving for Uz, Initial residual = 0.0394816, Final residual = 0.00151176, No Iterations 2
GAMG:  Solving for p, Initial residual = 0.204891, Final residual = 0.000828298, No Iterations 3
time step continuity errors : sum local = 0.104155, global = 0.00962269, cumulative = 0.508194
smoothSolver:  Solving for omega, Initial residual = 0.00281287, Final residual = 0.000222077, No Iterations 2
smoothSolver:  Solving for k, Initial residual = 0.114518, Final residual = 0.00413327, No Iterations 2
ExecutionTime = 5.76 s  ClockTime = 6 s

Time = 18

smoothSolver:  Solving for Ux, Initial residual = 0.0615115, Final residual = 0.00458504, No Iterations 1
smoothSolver:  Solving for Uy, Initial residual = 0.0615701, Final residual = 0.00459397, No Iterations 1
smoothSolver:  Solving for Uz, Initial residual = 0.0377473, Final residual = 0.00142609, No Iterations 2
GAMG:  Solving for p, Initial residual = 0.203326, Final residual = 0.000757706, No Iterations 3
time step continuity errors : sum local = 0.0947155, global = -0.00598024, cumulative = 0.502214
smoothSolver:  Solving for omega, Initial residual = 0.00281509, Final residual = 0.000231865, No Iterations 2
smoothSolver:  Solving for k, Initial residual = 0.118574, Final residual = 0.00510595, No Iterations 2
ExecutionTime = 6.09 s  ClockTime = 6 s

Time = 19

smoothSolver:  Solving for Ux, Initial residual = 0.0599243, Final residual = 0.00445629, No Iterations 1
smoothSolver:  Solving for Uy, Initial residual = 0.05999, Final residual = 0.00446373, No Iterations 1
smoothSolver:  Solving for Uz, Initial residual = 0.0359124, Final residual = 0.00135986, No Iterations 2
GAMG:  Solving for p, Initial residual = 0.202085, Final residual = 0.000748048, No Iterations 3
time step continuity errors : sum local = 0.0926203, global = -0.0154806, cumulative = 0.486733
smoothSolver:  Solving for omega, Initial residual = 0.00281139, Final residual = 0.000241515, No Iterations 2
smoothSolver:  Solving for k, Initial residual = 0.122563, Final residual = 0.00611, No Iterations 2
ExecutionTime = 6.43 s  ClockTime = 7 s

Time = 20

smoothSolver:  Solving for Ux, Initial residual = 0.0589115, Final residual = 0.00440507, No Iterations 1
smoothSolver:  Solving for Uy, Initial residual = 0.058987, Final residual = 0.00441116, No Iterations 1
smoothSolver:  Solving for Uz, Initial residual = 0.0339804, Final residual = 0.00130772, No Iterations 2
GAMG:  Solving for p, Initial residual = 0.199959, Final residual = 0.000762919, No Iterations 3
time step continuity errors : sum local = 0.0935293, global = -0.019126, cumulative = 0.467607
smoothSolver:  Solving for omega, Initial residual = 0.00282574, Final residual = 0.000252688, No Iterations 2
smoothSolver:  Solving for k, Initial residual = 0.124927, Final residual = 0.0070588, No Iterations 2
ExecutionTime = 6.78 s  ClockTime = 7 s

Time = 21

smoothSolver:  Solving for Ux, Initial residual = 0.058211, Final residual = 0.00442301, No Iterations 1
smoothSolver:  Solving for Uy, Initial residual = 0.0582939, Final residual = 0.0044296, No Iterations 1
smoothSolver:  Solving for Uz, Initial residual = 0.0320417, Final residual = 0.00127213, No Iterations 2
GAMG:  Solving for p, Initial residual = 0.196507, Final residual = 0.000752609, No Iterations 3
time step continuity errors : sum local = 0.0914712, global = -0.0204594, cumulative = 0.447148
smoothSolver:  Solving for omega, Initial residual = 0.00279637, Final residual = 0.000258194, No Iterations 2
smoothSolver:  Solving for k, Initial residual = 0.124583, Final residual = 0.00790357, No Iterations 2
ExecutionTime = 7.09 s  ClockTime = 7 s

Time = 22

smoothSolver:  Solving for Ux, Initial residual = 0.0576177, Final residual = 0.00448446, No Iterations 1
smoothSolver:  Solving for Uy, Initial residual = 0.0577105, Final residual = 0.00449398, No Iterations 1
smoothSolver:  Solving for Uz, Initial residual = 0.0302116, Final residual = 0.00125042, No Iterations 2
GAMG:  Solving for p, Initial residual = 0.191705, Final residual = 0.000678329, No Iterations 3
time step continuity errors : sum local = 0.081893, global = -0.0222242, cumulative = 0.424924
smoothSolver:  Solving for omega, Initial residual = 0.00273341, Final residual = 0.000262787, No Iterations 2
smoothSolver:  Solving for k, Initial residual = 0.121667, Final residual = 0.00830549, No Iterations 2
ExecutionTime = 7.39 s  ClockTime = 8 s

Time = 23

smoothSolver:  Solving for Ux, Initial residual = 0.0571174, Final residual = 0.00456472, No Iterations 1
smoothSolver:  Solving for Uy, Initial residual = 0.0572081, Final residual = 0.00457581, No Iterations 1
smoothSolver:  Solving for Uz, Initial residual = 0.028409, Final residual = 0.0012454, No Iterations 2
GAMG:  Solving for p, Initial residual = 0.185935, Final residual = 0.00056279, No Iterations 3
time step continuity errors : sum local = 0.0677185, global = -0.0311169, cumulative = 0.393807
smoothSolver:  Solving for omega, Initial residual = 0.00265025, Final residual = 0.000253625, No Iterations 2
smoothSolver:  Solving for k, Initial residual = 0.116389, Final residual = 0.00844666, No Iterations 2
ExecutionTime = 7.69 s  ClockTime = 8 s

Time = 24

smoothSolver:  Solving for Ux, Initial residual = 0.0565824, Final residual = 0.00458436, No Iterations 1
smoothSolver:  Solving for Uy, Initial residual = 0.0566569, Final residual = 0.00459415, No Iterations 1
smoothSolver:  Solving for Uz, Initial residual = 0.0269222, Final residual = 0.0012197, No Iterations 2
GAMG:  Solving for p, Initial residual = 0.179516, Final residual = 0.0015694, No Iterations 2
time step continuity errors : sum local = 0.187149, global = -0.0745514, cumulative = 0.319256
smoothSolver:  Solving for omega, Initial residual = 0.00252057, Final residual = 0.00024516, No Iterations 2
smoothSolver:  Solving for k, Initial residual = 0.109949, Final residual = 0.0083121, No Iterations 2
ExecutionTime = 7.98 s  ClockTime = 8 s

Time = 25

smoothSolver:  Solving for Ux, Initial residual = 0.0559655, Final residual = 0.00459697, No Iterations 1
smoothSolver:  Solving for Uy, Initial residual = 0.0558972, Final residual = 0.00458338, No Iterations 1
smoothSolver:  Solving for Uz, Initial residual = 0.0252665, Final residual = 0.00118327, No Iterations 2
GAMG:  Solving for p, Initial residual = 0.172223, Final residual = 0.00145161, No Iterations 2
time step continuity errors : sum local = 0.171665, global = -0.0592711, cumulative = 0.259984
smoothSolver:  Solving for omega, Initial residual = 0.00237844, Final residual = 0.000231061, No Iterations 2
smoothSolver:  Solving for k, Initial residual = 0.10078, Final residual = 0.0080059, No Iterations 2
ExecutionTime = 8.31 s  ClockTime = 9 s

Time = 26

smoothSolver:  Solving for Ux, Initial residual = 0.0557746, Final residual = 0.00462021, No Iterations 1
smoothSolver:  Solving for Uy, Initial residual = 0.0556146, Final residual = 0.00458854, No Iterations 1
smoothSolver:  Solving for Uz, Initial residual = 0.023807, Final residual = 0.0011515, No Iterations 2
GAMG:  Solving for p, Initial residual = 0.164318, Final residual = 0.00138423, No Iterations 2
time step continuity errors : sum local = 0.161891, global = -0.0381692, cumulative = 0.221815
smoothSolver:  Solving for omega, Initial residual = 0.00220967, Final residual = 0.000214464, No Iterations 2
smoothSolver:  Solving for k, Initial residual = 0.0931581, Final residual = 0.00750092, No Iterations 2
ExecutionTime = 8.63 s  ClockTime = 9 s

Time = 27

smoothSolver:  Solving for Ux, Initial residual = 0.0561541, Final residual = 0.00464441, No Iterations 1
smoothSolver:  Solving for Uy, Initial residual = 0.0559261, Final residual = 0.00461607, No Iterations 1
smoothSolver:  Solving for Uz, Initial residual = 0.0224789, Final residual = 0.00109873, No Iterations 2
GAMG:  Solving for p, Initial residual = 0.156103, Final residual = 0.0013331, No Iterations 2
time step continuity errors : sum local = 0.153939, global = -0.0210369, cumulative = 0.200778
smoothSolver:  Solving for omega, Initial residual = 0.00209915, Final residual = 0.000201193, No Iterations 2
smoothSolver:  Solving for k, Initial residual = 0.0840777, Final residual = 0.00676963, No Iterations 2
ExecutionTime = 8.95 s  ClockTime = 9 s

Time = 28

smoothSolver:  Solving for Ux, Initial residual = 0.057194, Final residual = 0.00469848, No Iterations 1
smoothSolver:  Solving for Uy, Initial residual = 0.0569775, Final residual = 0.00468368, No Iterations 1
smoothSolver:  Solving for Uz, Initial residual = 0.0211217, Final residual = 0.00102089, No Iterations 2
GAMG:  Solving for p, Initial residual = 0.147881, Final residual = 0.00127831, No Iterations 2
time step continuity errors : sum local = 0.145576, global = -0.0123502, cumulative = 0.188428
smoothSolver:  Solving for omega, Initial residual = 0.00201369, Final residual = 0.000185834, No Iterations 2
smoothSolver:  Solving for k, Initial residual = 0.0783861, Final residual = 0.00605592, No Iterations 2
ExecutionTime = 9.32 s  ClockTime = 10 s

Time = 29

smoothSolver:  Solving for Ux, Initial residual = 0.0590769, Final residual = 0.00485085, No Iterations 1
smoothSolver:  Solving for Uy, Initial residual = 0.0589155, Final residual = 0.00483556, No Iterations 1
smoothSolver:  Solving for Uz, Initial residual = 0.0197311, Final residual = 0.000923409, No Iterations 2
GAMG:  Solving for p, Initial residual = 0.140315, Final residual = 0.00121928, No Iterations 2
time step continuity errors : sum local = 0.136532, global = -0.0133045, cumulative = 0.175124
smoothSolver:  Solving for omega, Initial residual = 0.00194073, Final residual = 0.000173738, No Iterations 2
smoothSolver:  Solving for k, Initial residual = 0.0752812, Final residual = 0.00513323, No Iterations 2
ExecutionTime = 9.63 s  ClockTime = 10 s

Time = 30

smoothSolver:  Solving for Ux, Initial residual = 0.0619665, Final residual = 0.00521875, No Iterations 1
smoothSolver:  Solving for Uy, Initial residual = 0.0619303, Final residual = 0.00520826, No Iterations 1
smoothSolver:  Solving for Uz, Initial residual = 0.0182502, Final residual = 0.000823048, No Iterations 2
GAMG:  Solving for p, Initial residual = 0.133882, Final residual = 0.00115751, No Iterations 2
time step continuity errors : sum local = 0.12713, global = -0.0231073, cumulative = 0.152016
smoothSolver:  Solving for omega, Initial residual = 0.001847, Final residual = 0.000161785, No Iterations 2
smoothSolver:  Solving for k, Initial residual = 0.0743335, Final residual = 0.00421057, No Iterations 2
ExecutionTime = 9.97 s  ClockTime = 10 s

Time = 31

smoothSolver:  Solving for Ux, Initial residual = 0.0653097, Final residual = 0.00563668, No Iterations 1
smoothSolver:  Solving for Uy, Initial residual = 0.0654718, Final residual = 0.00565053, No Iterations 1
smoothSolver:  Solving for Uz, Initial residual = 0.016773, Final residual = 0.000703609, No Iterations 2
GAMG:  Solving for p, Initial residual = 0.129354, Final residual = 0.00110088, No Iterations 2
time step continuity errors : sum local = 0.11841, global = -0.036076, cumulative = 0.11594
smoothSolver:  Solving for omega, Initial residual = 0.00171466, Final residual = 0.000148883, No Iterations 2
smoothSolver:  Solving for k, Initial residual = 0.0710126, Final residual = 0.00341544, No Iterations 2
ExecutionTime = 10.31 s  ClockTime = 11 s

Time = 32

smoothSolver:  Solving for Ux, Initial residual = 0.0685489, Final residual = 0.00599035, No Iterations 1
smoothSolver:  Solving for Uy, Initial residual = 0.0690897, Final residual = 0.00602702, No Iterations 1
smoothSolver:  Solving for Uz, Initial residual = 0.0152902, Final residual = 0.00055966, No Iterations 2
GAMG:  Solving for p, Initial residual = 0.1276, Final residual = 0.00108165, No Iterations 2
time step continuity errors : sum local = 0.113724, global = -0.0482003, cumulative = 0.06774
smoothSolver:  Solving for omega, Initial residual = 0.00165792, Final residual = 0.000150248, No Iterations 2
smoothSolver:  Solving for k, Initial residual = 0.0646629, Final residual = 0.00284931, No Iterations 2
ExecutionTime = 10.65 s  ClockTime = 11 s

Time = 33

smoothSolver:  Solving for Ux, Initial residual = 0.0742869, Final residual = 0.00705651, No Iterations 1
smoothSolver:  Solving for Uy, Initial residual = 0.0732343, Final residual = 0.00670897, No Iterations 1
smoothSolver:  Solving for Uz, Initial residual = 0.016545, Final residual = 0.000755122, No Iterations 2
GAMG:  Solving for p, Initial residual = 0.126702, Final residual = 0.00034857, No Iterations 3
time step continuity errors : sum local = 0.0357519, global = -0.0172182, cumulative = 0.0505218
smoothSolver:  Solving for omega, Initial residual = 0.00160059, Final residual = 0.00015408, No Iterations 2
smoothSolver:  Solving for k, Initial residual = 0.0587036, Final residual = 0.00225266, No Iterations 2
ExecutionTime = 10.99 s  ClockTime = 11 s

Time = 34

smoothSolver:  Solving for Ux, Initial residual = 0.0725954, Final residual = 0.00172015, No Iterations 2
smoothSolver:  Solving for Uy, Initial residual = 0.0742049, Final residual = 0.0020352, No Iterations 2
smoothSolver:  Solving for Uz, Initial residual = 0.0172529, Final residual = 0.0015979, No Iterations 2
GAMG:  Solving for p, Initial residual = 0.124341, Final residual = 0.000575769, No Iterations 3
time step continuity errors : sum local = 0.0576957, global = -0.0391029, cumulative = 0.0114188
smoothSolver:  Solving for omega, Initial residual = 0.00143241, Final residual = 6.33851e-05, No Iterations 3
smoothSolver:  Solving for k, Initial residual = 0.0523697, Final residual = 0.00155178, No Iterations 2
ExecutionTime = 11.32 s  ClockTime = 12 s

Time = 35

smoothSolver:  Solving for Ux, Initial residual = 0.0690034, Final residual = 0.00663567, No Iterations 1
smoothSolver:  Solving for Uy, Initial residual = 0.0696141, Final residual = 0.00682955, No Iterations 1
smoothSolver:  Solving for Uz, Initial residual = 0.0159445, Final residual = 0.00124358, No Iterations 2
GAMG:  Solving for p, Initial residual = 0.116663, Final residual = 0.000499348, No Iterations 3
time step continuity errors : sum local = 0.0512505, global = -0.0293209, cumulative = -0.0179021
smoothSolver:  Solving for omega, Initial residual = 0.00126203, Final residual = 6.1937e-05, No Iterations 3
smoothSolver:  Solving for k, Initial residual = 0.0445432, Final residual = 0.000903883, No Iterations 2
ExecutionTime = 11.63 s  ClockTime = 12 s

Time = 36

smoothSolver:  Solving for Ux, Initial residual = 0.0641859, Final residual = 0.00635795, No Iterations 1
smoothSolver:  Solving for Uy, Initial residual = 0.0648224, Final residual = 0.00175869, No Iterations 2
smoothSolver:  Solving for Uz, Initial residual = 0.0139179, Final residual = 0.00114442, No Iterations 2
GAMG:  Solving for p, Initial residual = 0.107687, Final residual = 0.000523515, No Iterations 3
time step continuity errors : sum local = 0.0549157, global = -0.0275649, cumulative = -0.045467
smoothSolver:  Solving for omega, Initial residual = 0.00115583, Final residual = 6.87086e-05, No Iterations 3
smoothSolver:  Solving for k, Initial residual = 0.0323113, Final residual = 0.00320629, No Iterations 1
ExecutionTime = 11.95 s  ClockTime = 12 s

Time = 37

smoothSolver:  Solving for Ux, Initial residual = 0.0592116, Final residual = 0.00216388, No Iterations 2
smoothSolver:  Solving for Uy, Initial residual = 0.0583313, Final residual = 0.00204045, No Iterations 2
smoothSolver:  Solving for Uz, Initial residual = 0.0128975, Final residual = 0.000703613, No Iterations 3
GAMG:  Solving for p, Initial residual = 0.100249, Final residual = 0.000507776, No Iterations 3
time step continuity errors : sum local = 0.0530463, global = -0.024119, cumulative = -0.069586
smoothSolver:  Solving for omega, Initial residual = 0.00112257, Final residual = 6.83114e-05, No Iterations 3
smoothSolver:  Solving for k, Initial residual = 0.0225342, Final residual = 0.00205669, No Iterations 1
ExecutionTime = 12.28 s  ClockTime = 12 s

Time = 38

smoothSolver:  Solving for Ux, Initial residual = 0.054063, Final residual = 0.00220291, No Iterations 2
smoothSolver:  Solving for Uy, Initial residual = 0.0537869, Final residual = 0.00222538, No Iterations 2
smoothSolver:  Solving for Uz, Initial residual = 0.0123833, Final residual = 0.000643885, No Iterations 3
GAMG:  Solving for p, Initial residual = 0.0950564, Final residual = 0.00051315, No Iterations 3
time step continuity errors : sum local = 0.0522953, global = -0.0215384, cumulative = -0.0911243
smoothSolver:  Solving for omega, Initial residual = 0.00114724, Final residual = 6.26784e-05, No Iterations 3
smoothSolver:  Solving for k, Initial residual = 0.0161297, Final residual = 0.000400857, No Iterations 2
ExecutionTime = 12.6 s  ClockTime = 13 s

Time = 39

smoothSolver:  Solving for Ux, Initial residual = 0.0519825, Final residual = 0.00251067, No Iterations 2
smoothSolver:  Solving for Uy, Initial residual = 0.0519753, Final residual = 0.00255683, No Iterations 2
smoothSolver:  Solving for Uz, Initial residual = 0.0119049, Final residual = 0.000561955, No Iterations 3
GAMG:  Solving for p, Initial residual = 0.0911329, Final residual = 0.000516193, No Iterations 3
time step continuity errors : sum local = 0.0510319, global = -0.0190451, cumulative = -0.110169
smoothSolver:  Solving for omega, Initial residual = 0.00120231, Final residual = 5.68715e-05, No Iterations 3
smoothSolver:  Solving for k, Initial residual = 0.0122051, Final residual = 0.000391523, No Iterations 2
ExecutionTime = 12.92 s  ClockTime = 13 s

Time = 40

smoothSolver:  Solving for Ux, Initial residual = 0.0525923, Final residual = 0.00258919, No Iterations 2
smoothSolver:  Solving for Uy, Initial residual = 0.0522677, Final residual = 0.00257691, No Iterations 2
smoothSolver:  Solving for Uz, Initial residual = 0.0114543, Final residual = 0.00050748, No Iterations 3
GAMG:  Solving for p, Initial residual = 0.0883393, Final residual = 0.000482763, No Iterations 3
time step continuity errors : sum local = 0.0462217, global = -0.0178816, cumulative = -0.128051
smoothSolver:  Solving for omega, Initial residual = 0.00120649, Final residual = 0.000115892, No Iterations 2
smoothSolver:  Solving for k, Initial residual = 0.0105342, Final residual = 0.000376732, No Iterations 2
ExecutionTime = 13.26 s  ClockTime = 13 s

Time = 41

smoothSolver:  Solving for Ux, Initial residual = 0.051963, Final residual = 0.00209589, No Iterations 2
smoothSolver:  Solving for Uy, Initial residual = 0.0519624, Final residual = 0.00208707, No Iterations 2
smoothSolver:  Solving for Uz, Initial residual = 0.0108123, Final residual = 0.000940386, No Iterations 2
GAMG:  Solving for p, Initial residual = 0.0865144, Final residual = 0.000417823, No Iterations 3
time step continuity errors : sum local = 0.0384102, global = -0.0165516, cumulative = -0.144603
smoothSolver:  Solving for omega, Initial residual = 0.00114373, Final residual = 9.78726e-05, No Iterations 2
smoothSolver:  Solving for k, Initial residual = 0.00966197, Final residual = 0.00037053, No Iterations 2
ExecutionTime = 13.57 s  ClockTime = 14 s

Time = 42

smoothSolver:  Solving for Ux, Initial residual = 0.0508759, Final residual = 0.0014673, No Iterations 2
smoothSolver:  Solving for Uy, Initial residual = 0.0512905, Final residual = 0.00154375, No Iterations 2
smoothSolver:  Solving for Uz, Initial residual = 0.0102772, Final residual = 0.000728028, No Iterations 2
GAMG:  Solving for p, Initial residual = 0.0857333, Final residual = 0.000406486, No Iterations 3
time step continuity errors : sum local = 0.0356153, global = -0.0149555, cumulative = -0.159558
smoothSolver:  Solving for omega, Initial residual = 0.00106978, Final residual = 8.63476e-05, No Iterations 2
smoothSolver:  Solving for k, Initial residual = 0.00901654, Final residual = 0.000362737, No Iterations 2
ExecutionTime = 13.88 s  ClockTime = 14 s

Time = 43

smoothSolver:  Solving for Ux, Initial residual = 0.0493111, Final residual = 0.00421926, No Iterations 1
smoothSolver:  Solving for Uy, Initial residual = 0.0501471, Final residual = 0.0046312, No Iterations 1
smoothSolver:  Solving for Uz, Initial residual = 0.00948076, Final residual = 0.000487575, No Iterations 2
GAMG:  Solving for p, Initial residual = 0.0855352, Final residual = 0.000413995, No Iterations 3
time step continuity errors : sum local = 0.0343815, global = -0.0125844, cumulative = -0.172143
smoothSolver:  Solving for omega, Initial residual = 0.0010252, Final residual = 8.13279e-05, No Iterations 2
smoothSolver:  Solving for k, Initial residual = 0.00803278, Final residual = 0.000335351, No Iterations 2
ExecutionTime = 14.2 s  ClockTime = 14 s

Time = 44

smoothSolver:  Solving for Ux, Initial residual = 0.0484179, Final residual = 0.00415403, No Iterations 1
smoothSolver:  Solving for Uy, Initial residual = 0.0493275, Final residual = 0.00453721, No Iterations 1
smoothSolver:  Solving for Uz, Initial residual = 0.00869204, Final residual = 0.00030693, No Iterations 2
GAMG:  Solving for p, Initial residual = 0.0855828, Final residual = 0.000398873, No Iterations 3
time step continuity errors : sum local = 0.0313685, global = -0.00992836, cumulative = -0.182071
smoothSolver:  Solving for omega, Initial residual = 0.000986352, Final residual = 7.47371e-05, No Iterations 2
smoothSolver:  Solving for k, Initial residual = 0.00659348, Final residual = 0.000283784, No Iterations 2
ExecutionTime = 14.52 s  ClockTime = 15 s

Time = 45

smoothSolver:  Solving for Ux, Initial residual = 0.0490562, Final residual = 0.00421473, No Iterations 1
smoothSolver:  Solving for Uy, Initial residual = 0.0500379, Final residual = 0.00457366, No Iterations 1
smoothSolver:  Solving for Uz, Initial residual = 0.00796364, Final residual = 0.000234281, No Iterations 2
GAMG:  Solving for p, Initial residual = 0.0855792, Final residual = 0.000355103, No Iterations 3
time step continuity errors : sum local = 0.0264091, global = -0.0074556, cumulative = -0.189527
smoothSolver:  Solving for omega, Initial residual = 0.000926098, Final residual = 7.02759e-05, No Iterations 2
smoothSolver:  Solving for k, Initial residual = 0.00511046, Final residual = 0.00025113, No Iterations 2
ExecutionTime = 14.83 s  ClockTime = 15 s

Time = 46

smoothSolver:  Solving for Ux, Initial residual = 0.0508818, Final residual = 0.00419953, No Iterations 1
smoothSolver:  Solving for Uy, Initial residual = 0.0517783, Final residual = 0.00462731, No Iterations 1
smoothSolver:  Solving for Uz, Initial residual = 0.00723003, Final residual = 0.00071744, No Iterations 1
GAMG:  Solving for p, Initial residual = 0.085584, Final residual = 0.000294451, No Iterations 3
time step continuity errors : sum local = 0.0206854, global = -0.00560506, cumulative = -0.195132
smoothSolver:  Solving for omega, Initial residual = 0.000848243, Final residual = 6.86936e-05, No Iterations 2
smoothSolver:  Solving for k, Initial residual = 0.00386172, Final residual = 0.000238286, No Iterations 2
ExecutionTime = 15.14 s  ClockTime = 15 s

Time = 47

smoothSolver:  Solving for Ux, Initial residual = 0.0529973, Final residual = 0.00411559, No Iterations 1
smoothSolver:  Solving for Uy, Initial residual = 0.0538701, Final residual = 0.00445759, No Iterations 1
smoothSolver:  Solving for Uz, Initial residual = 0.00651393, Final residual = 0.000615948, No Iterations 1
GAMG:  Solving for p, Initial residual = 0.0859061, Final residual = 0.000781141, No Iterations 2
time step continuity errors : sum local = 0.0517004, global = -0.0118651, cumulative = -0.206997
smoothSolver:  Solving for omega, Initial residual = 0.000764529, Final residual = 6.34779e-05, No Iterations 2
smoothSolver:  Solving for k, Initial residual = 0.00302956, Final residual = 0.000227734, No Iterations 2
ExecutionTime = 15.44 s  ClockTime = 16 s

Time = 48

smoothSolver:  Solving for Ux, Initial residual = 0.054404, Final residual = 0.00374214, No Iterations 1
smoothSolver:  Solving for Uy, Initial residual = 0.0550742, Final residual = 0.00414774, No Iterations 1
smoothSolver:  Solving for Uz, Initial residual = 0.00563629, Final residual = 0.000530059, No Iterations 1
GAMG:  Solving for p, Initial residual = 0.0857953, Final residual = 0.000805462, No Iterations 2
time step continuity errors : sum local = 0.0506788, global = -0.0141308, cumulative = -0.221128
smoothSolver:  Solving for omega, Initial residual = 0.000685897, Final residual = 5.78141e-05, No Iterations 2
smoothSolver:  Solving for k, Initial residual = 0.00250771, Final residual = 0.000213404, No Iterations 2
ExecutionTime = 15.73 s  ClockTime = 16 s

Time = 49

smoothSolver:  Solving for Ux, Initial residual = 0.0538551, Final residual = 0.00339143, No Iterations 1
smoothSolver:  Solving for Uy, Initial residual = 0.054642, Final residual = 0.00372289, No Iterations 1
smoothSolver:  Solving for Uz, Initial residual = 0.00482402, Final residual = 0.000462419, No Iterations 1
GAMG:  Solving for p, Initial residual = 0.0858094, Final residual = 0.000289214, No Iterations 3
time step continuity errors : sum local = 0.0172813, global = -0.0041493, cumulative = -0.225277
smoothSolver:  Solving for omega, Initial residual = 0.000611083, Final residual = 5.56664e-05, No Iterations 2
smoothSolver:  Solving for k, Initial residual = 0.00212622, Final residual = 0.000197835, No Iterations 2
ExecutionTime = 16.03 s  ClockTime = 16 s

Time = 50

smoothSolver:  Solving for Ux, Initial residual = 0.0514038, Final residual = 0.00327611, No Iterations 1
smoothSolver:  Solving for Uy, Initial residual = 0.0523416, Final residual = 0.00354196, No Iterations 1
smoothSolver:  Solving for Uz, Initial residual = 0.00422071, Final residual = 0.000403324, No Iterations 1
GAMG:  Solving for p, Initial residual = 0.0867187, Final residual = 0.000303369, No Iterations 3
time step continuity errors : sum local = 0.0169304, global = -0.0043612, cumulative = -0.229638
smoothSolver:  Solving for omega, Initial residual = 0.000545467, Final residual = 2.34289e-05, No Iterations 3
smoothSolver:  Solving for k, Initial residual = 0.00178822, Final residual = 8.18589e-05, No Iterations 3
ExecutionTime = 16.34 s  ClockTime = 17 s

Time = 51

smoothSolver:  Solving for Ux, Initial residual = 0.0485156, Final residual = 0.00311103, No Iterations 1
smoothSolver:  Solving for Uy, Initial residual = 0.0493027, Final residual = 0.00336839, No Iterations 1
smoothSolver:  Solving for Uz, Initial residual = 0.00376986, Final residual = 0.000125346, No Iterations 2
GAMG:  Solving for p, Initial residual = 0.087005, Final residual = 0.000318665, No Iterations 3
time step continuity errors : sum local = 0.0166564, global = -0.00444952, cumulative = -0.234088
smoothSolver:  Solving for omega, Initial residual = 0.000481224, Final residual = 2.21286e-05, No Iterations 3
smoothSolver:  Solving for k, Initial residual = 0.00150671, Final residual = 7.95635e-05, No Iterations 3
ExecutionTime = 16.68 s  ClockTime = 17 s

Time = 52

smoothSolver:  Solving for Ux, Initial residual = 0.0467553, Final residual = 0.00312146, No Iterations 1
smoothSolver:  Solving for Uy, Initial residual = 0.0472969, Final residual = 0.00331028, No Iterations 1
smoothSolver:  Solving for Uz, Initial residual = 0.00324964, Final residual = 0.000310252, No Iterations 1
GAMG:  Solving for p, Initial residual = 0.0867051, Final residual = 0.000321055, No Iterations 3
time step continuity errors : sum local = 0.0157849, global = -0.00426105, cumulative = -0.238349
smoothSolver:  Solving for omega, Initial residual = 0.000410638, Final residual = 2.05197e-05, No Iterations 3
smoothSolver:  Solving for k, Initial residual = 0.00127827, Final residual = 7.50869e-05, No Iterations 3
ExecutionTime = 16.98 s  ClockTime = 17 s

Time = 53

smoothSolver:  Solving for Ux, Initial residual = 0.0466458, Final residual = 0.00312196, No Iterations 1
smoothSolver:  Solving for Uy, Initial residual = 0.0469179, Final residual = 0.003254, No Iterations 1
smoothSolver:  Solving for Uz, Initial residual = 0.00281219, Final residual = 0.000251681, No Iterations 1
GAMG:  Solving for p, Initial residual = 0.0860242, Final residual = 0.00031733, No Iterations 3
time step continuity errors : sum local = 0.0147435, global = -0.00407295, cumulative = -0.242422
smoothSolver:  Solving for omega, Initial residual = 0.000351676, Final residual = 1.95953e-05, No Iterations 3
smoothSolver:  Solving for k, Initial residual = 0.00108376, Final residual = 7.09617e-05, No Iterations 3
ExecutionTime = 17.3 s  ClockTime = 17 s

Time = 54

smoothSolver:  Solving for Ux, Initial residual = 0.0466658, Final residual = 0.00298261, No Iterations 1
smoothSolver:  Solving for Uy, Initial residual = 0.0465318, Final residual = 0.00314881, No Iterations 1
smoothSolver:  Solving for Uz, Initial residual = 0.00239393, Final residual = 0.000208215, No Iterations 1
GAMG:  Solving for p, Initial residual = 0.0848918, Final residual = 0.000314282, No Iterations 3
time step continuity errors : sum local = 0.0138525, global = -0.00396601, cumulative = -0.246388
smoothSolver:  Solving for omega, Initial residual = 0.000308502, Final residual = 1.9055e-05, No Iterations 3
smoothSolver:  Solving for k, Initial residual = 0.000934529, Final residual = 6.78245e-05, No Iterations 3
ExecutionTime = 17.64 s  ClockTime = 18 s

Time = 55

smoothSolver:  Solving for Ux, Initial residual = 0.0459486, Final residual = 0.00283905, No Iterations 1
smoothSolver:  Solving for Uy, Initial residual = 0.0455201, Final residual = 0.00311687, No Iterations 1
smoothSolver:  Solving for Uz, Initial residual = 0.00205246, Final residual = 0.00018583, No Iterations 1
GAMG:  Solving for p, Initial residual = 0.0833192, Final residual = 0.000313323, No Iterations 3
time step continuity errors : sum local = 0.013147, global = -0.00389356, cumulative = -0.250281
smoothSolver:  Solving for omega, Initial residual = 0.000277332, Final residual = 1.78007e-05, No Iterations 3
smoothSolver:  Solving for k, Initial residual = 0.000823295, Final residual = 6.50822e-05, No Iterations 3
ExecutionTime = 17.95 s  ClockTime = 18 s

Time = 56

smoothSolver:  Solving for Ux, Initial residual = 0.0443602, Final residual = 0.00276294, No Iterations 1
smoothSolver:  Solving for Uy, Initial residual = 0.0439159, Final residual = 0.00289572, No Iterations 1
smoothSolver:  Solving for Uz, Initial residual = 0.00180591, Final residual = 0.000173019, No Iterations 1
GAMG:  Solving for p, Initial residual = 0.0815634, Final residual = 0.000310882, No Iterations 3
time step continuity errors : sum local = 0.0124561, global = -0.0038304, cumulative = -0.254111
smoothSolver:  Solving for omega, Initial residual = 0.000254487, Final residual = 1.6473e-05, No Iterations 3
smoothSolver:  Solving for k, Initial residual = 0.000743951, Final residual = 6.25895e-05, No Iterations 3
ExecutionTime = 18.28 s  ClockTime = 18 s

Time = 57

smoothSolver:  Solving for Ux, Initial residual = 0.042505, Final residual = 0.0027124, No Iterations 1
smoothSolver:  Solving for Uy, Initial residual = 0.0419043, Final residual = 0.00285705, No Iterations 1
smoothSolver:  Solving for Uz, Initial residual = 0.00163505, Final residual = 0.000160627, No Iterations 1
GAMG:  Solving for p, Initial residual = 0.0794903, Final residual = 0.000301568, No Iterations 3
time step continuity errors : sum local = 0.0115736, global = -0.00369337, cumulative = -0.257805
smoothSolver:  Solving for omega, Initial residual = 0.000235275, Final residual = 1.55105e-05, No Iterations 3
smoothSolver:  Solving for k, Initial residual = 0.000688933, Final residual = 6.01987e-05, No Iterations 3
ExecutionTime = 18.6 s  ClockTime = 19 s

Time = 58

smoothSolver:  Solving for Ux, Initial residual = 0.041065, Final residual = 0.00266111, No Iterations 1
smoothSolver:  Solving for Uy, Initial residual = 0.0406942, Final residual = 0.00277257, No Iterations 1
smoothSolver:  Solving for Uz, Initial residual = 0.00150944, Final residual = 6.2258e-05, No Iterations 2
GAMG:  Solving for p, Initial residual = 0.0771689, Final residual = 0.00028906, No Iterations 3
time step continuity errors : sum local = 0.010658, global = -0.0034818, cumulative = -0.261287
smoothSolver:  Solving for omega, Initial residual = 0.000224983, Final residual = 1.50371e-05, No Iterations 3
smoothSolver:  Solving for k, Initial residual = 0.000660056, Final residual = 5.83509e-05, No Iterations 3
ExecutionTime = 18.9 s  ClockTime = 19 s

Time = 59

smoothSolver:  Solving for Ux, Initial residual = 0.0404966, Final residual = 0.00259951, No Iterations 1
smoothSolver:  Solving for Uy, Initial residual = 0.0403228, Final residual = 0.00265822, No Iterations 1
smoothSolver:  Solving for Uz, Initial residual = 0.00141006, Final residual = 6.03007e-05, No Iterations 2
GAMG:  Solving for p, Initial residual = 0.074652, Final residual = 0.000270817, No Iterations 3
time step continuity errors : sum local = 0.00962862, global = -0.00320577, cumulative = -0.264492
smoothSolver:  Solving for omega, Initial residual = 0.000213427, Final residual = 1.43823e-05, No Iterations 3
smoothSolver:  Solving for k, Initial residual = 0.000637782, Final residual = 5.66557e-05, No Iterations 3
ExecutionTime = 19.21 s  ClockTime = 19 s

Time = 60

smoothSolver:  Solving for Ux, Initial residual = 0.0403191, Final residual = 0.00262209, No Iterations 1
smoothSolver:  Solving for Uy, Initial residual = 0.0403037, Final residual = 0.00265522, No Iterations 1
smoothSolver:  Solving for Uz, Initial residual = 0.00134237, Final residual = 5.83333e-05, No Iterations 2
GAMG:  Solving for p, Initial residual = 0.0719561, Final residual = 0.000252664, No Iterations 3
time step continuity errors : sum local = 0.00868938, global = -0.00286371, cumulative = -0.267356
smoothSolver:  Solving for omega, Initial residual = 0.000203681, Final residual = 1.37527e-05, No Iterations 3
smoothSolver:  Solving for k, Initial residual = 0.000622081, Final residual = 5.51828e-05, No Iterations 3
ExecutionTime = 19.54 s  ClockTime = 20 s

Time = 61

smoothSolver:  Solving for Ux, Initial residual = 0.0402431, Final residual = 0.00266164, No Iterations 1
smoothSolver:  Solving for Uy, Initial residual = 0.0404413, Final residual = 0.00266088, No Iterations 1
smoothSolver:  Solving for Uz, Initial residual = 0.0012891, Final residual = 5.6866e-05, No Iterations 2
GAMG:  Solving for p, Initial residual = 0.0691005, Final residual = 0.000237701, No Iterations 3
time step continuity errors : sum local = 0.00792707, global = -0.00253204, cumulative = -0.269888
smoothSolver:  Solving for omega, Initial residual = 0.00019684, Final residual = 1.3295e-05, No Iterations 3
smoothSolver:  Solving for k, Initial residual = 0.000608653, Final residual = 5.38116e-05, No Iterations 3
ExecutionTime = 19.85 s  ClockTime = 20 s

Time = 62

smoothSolver:  Solving for Ux, Initial residual = 0.0400521, Final residual = 0.00267452, No Iterations 1
smoothSolver:  Solving for Uy, Initial residual = 0.0402072, Final residual = 0.00266331, No Iterations 1
smoothSolver:  Solving for Uz, Initial residual = 0.00123645, Final residual = 5.48427e-05, No Iterations 2
GAMG:  Solving for p, Initial residual = 0.0661493, Final residual = 0.000224649, No Iterations 3
time step continuity errors : sum local = 0.00728118, global = -0.00219675, cumulative = -0.272085
smoothSolver:  Solving for omega, Initial residual = 0.000189083, Final residual = 1.27306e-05, No Iterations 3
smoothSolver:  Solving for k, Initial residual = 0.000593529, Final residual = 5.24581e-05, No Iterations 3
ExecutionTime = 20.17 s  ClockTime = 20 s

Time = 63

smoothSolver:  Solving for Ux, Initial residual = 0.0394229, Final residual = 0.00257754, No Iterations 1
smoothSolver:  Solving for Uy, Initial residual = 0.0395651, Final residual = 0.00256555, No Iterations 1
smoothSolver:  Solving for Uz, Initial residual = 0.00118271, Final residual = 5.2981e-05, No Iterations 2
GAMG:  Solving for p, Initial residual = 0.0631632, Final residual = 0.000214101, No Iterations 3
time step continuity errors : sum local = 0.00675737, global = -0.00190134, cumulative = -0.273986
smoothSolver:  Solving for omega, Initial residual = 0.000182827, Final residual = 1.23507e-05, No Iterations 3
smoothSolver:  Solving for k, Initial residual = 0.000574804, Final residual = 5.0746e-05, No Iterations 3
ExecutionTime = 20.48 s  ClockTime = 21 s

Time = 64

smoothSolver:  Solving for Ux, Initial residual = 0.038375, Final residual = 0.00253538, No Iterations 1
smoothSolver:  Solving for Uy, Initial residual = 0.0385049, Final residual = 0.00250472, No Iterations 1
smoothSolver:  Solving for Uz, Initial residual = 0.00112968, Final residual = 5.20429e-05, No Iterations 2
GAMG:  Solving for p, Initial residual = 0.0601409, Final residual = 0.000205821, No Iterations 3
time step continuity errors : sum local = 0.00633815, global = -0.00163553, cumulative = -0.275622
smoothSolver:  Solving for omega, Initial residual = 0.000176146, Final residual = 1.20293e-05, No Iterations 3
smoothSolver:  Solving for k, Initial residual = 0.000560069, Final residual = 4.89165e-05, No Iterations 3
ExecutionTime = 20.79 s  ClockTime = 21 s

Time = 65

smoothSolver:  Solving for Ux, Initial residual = 0.0370767, Final residual = 0.00249026, No Iterations 1
smoothSolver:  Solving for Uy, Initial residual = 0.0372, Final residual = 0.00249678, No Iterations 1
smoothSolver:  Solving for Uz, Initial residual = 0.00107539, Final residual = 5.17289e-05, No Iterations 2
GAMG:  Solving for p, Initial residual = 0.0571483, Final residual = 0.000201214, No Iterations 3
time step continuity errors : sum local = 0.00605613, global = -0.00143366, cumulative = -0.277055
smoothSolver:  Solving for omega, Initial residual = 0.000169626, Final residual = 1.16729e-05, No Iterations 3
smoothSolver:  Solving for k, Initial residual = 0.000550332, Final residual = 4.70898e-05, No Iterations 3
ExecutionTime = 21.11 s  ClockTime = 21 s

Time = 66

smoothSolver:  Solving for Ux, Initial residual = 0.0357677, Final residual = 0.00248722, No Iterations 1
smoothSolver:  Solving for Uy, Initial residual = 0.0358105, Final residual = 0.00249897, No Iterations 1
smoothSolver:  Solving for Uz, Initial residual = 0.00102303, Final residual = 5.17107e-05, No Iterations 2
GAMG:  Solving for p, Initial residual = 0.0542246, Final residual = 0.000201847, No Iterations 3
time step continuity errors : sum local = 0.00594688, global = -0.00132064, cumulative = -0.278376
smoothSolver:  Solving for omega, Initial residual = 0.000161268, Final residual = 1.13271e-05, No Iterations 3
smoothSolver:  Solving for k, Initial residual = 0.000539522, Final residual = 4.52542e-05, No Iterations 3
ExecutionTime = 21.42 s  ClockTime = 22 s

Time = 67

smoothSolver:  Solving for Ux, Initial residual = 0.0345588, Final residual = 0.00252307, No Iterations 1
smoothSolver:  Solving for Uy, Initial residual = 0.0344148, Final residual = 0.00251411, No Iterations 1
smoothSolver:  Solving for Uz, Initial residual = 0.000974745, Final residual = 5.17016e-05, No Iterations 2
GAMG:  Solving for p, Initial residual = 0.0514591, Final residual = 0.000206578, No Iterations 3
time step continuity errors : sum local = 0.00596381, global = -0.00128432, cumulative = -0.27966
smoothSolver:  Solving for omega, Initial residual = 0.000153937, Final residual = 1.10059e-05, No Iterations 3
smoothSolver:  Solving for k, Initial residual = 0.000526025, Final residual = 4.35633e-05, No Iterations 3
ExecutionTime = 21.7 s  ClockTime = 22 s

Time = 68

smoothSolver:  Solving for Ux, Initial residual = 0.03378, Final residual = 0.00264563, No Iterations 1
smoothSolver:  Solving for Uy, Initial residual = 0.0333752, Final residual = 0.0026442, No Iterations 1
smoothSolver:  Solving for Uz, Initial residual = 0.000932597, Final residual = 5.13667e-05, No Iterations 2
GAMG:  Solving for p, Initial residual = 0.0488239, Final residual = 0.000212966, No Iterations 3
time step continuity errors : sum local = 0.00602891, global = -0.0012736, cumulative = -0.280934
smoothSolver:  Solving for omega, Initial residual = 0.00014776, Final residual = 1.07473e-05, No Iterations 3
smoothSolver:  Solving for k, Initial residual = 0.000517274, Final residual = 4.21964e-05, No Iterations 3
ExecutionTime = 21.99 s  ClockTime = 22 s

Time = 69

smoothSolver:  Solving for Ux, Initial residual = 0.0332861, Final residual = 0.00281471, No Iterations 1
smoothSolver:  Solving for Uy, Initial residual = 0.0326367, Final residual = 0.00279313, No Iterations 1
smoothSolver:  Solving for Uz, Initial residual = 0.000894044, Final residual = 5.08316e-05, No Iterations 2
GAMG:  Solving for p, Initial residual = 0.0463111, Final residual = 0.000218421, No Iterations 3
time step continuity errors : sum local = 0.00606833, global = -0.00126365, cumulative = -0.282198
smoothSolver:  Solving for omega, Initial residual = 0.000143106, Final residual = 1.04412e-05, No Iterations 3
smoothSolver:  Solving for k, Initial residual = 0.000510522, Final residual = 4.10895e-05, No Iterations 3
ExecutionTime = 22.29 s  ClockTime = 22 s

Time = 70

smoothSolver:  Solving for Ux, Initial residual = 0.0329436, Final residual = 0.00300895, No Iterations 1
smoothSolver:  Solving for Uy, Initial residual = 0.032185, Final residual = 0.00294967, No Iterations 1
smoothSolver:  Solving for Uz, Initial residual = 0.000861543, Final residual = 4.9757e-05, No Iterations 2
GAMG:  Solving for p, Initial residual = 0.0439035, Final residual = 0.00021974, No Iterations 3
time step continuity errors : sum local = 0.00599664, global = -0.00125107, cumulative = -0.283449
smoothSolver:  Solving for omega, Initial residual = 0.000139624, Final residual = 1.02557e-05, No Iterations 3
smoothSolver:  Solving for k, Initial residual = 0.000501705, Final residual = 3.99243e-05, No Iterations 3
ExecutionTime = 22.57 s  ClockTime = 23 s

Time = 71

smoothSolver:  Solving for Ux, Initial residual = 0.0327382, Final residual = 0.00318969, No Iterations 1
smoothSolver:  Solving for Uy, Initial residual = 0.0319062, Final residual = 0.00311284, No Iterations 1
smoothSolver:  Solving for Uz, Initial residual = 0.000833482, Final residual = 4.87064e-05, No Iterations 2
GAMG:  Solving for p, Initial residual = 0.0415955, Final residual = 0.00021599, No Iterations 3
time step continuity errors : sum local = 0.0057946, global = -0.00121784, cumulative = -0.284667
smoothSolver:  Solving for omega, Initial residual = 0.000136512, Final residual = 1.02322e-05, No Iterations 3
smoothSolver:  Solving for k, Initial residual = 0.000493782, Final residual = 3.86787e-05, No Iterations 3
ExecutionTime = 22.9 s  ClockTime = 23 s

Time = 72

smoothSolver:  Solving for Ux, Initial residual = 0.03252, Final residual = 0.00141085, No Iterations 2
smoothSolver:  Solving for Uy, Initial residual = 0.0316826, Final residual = 0.00138623, No Iterations 2
smoothSolver:  Solving for Uz, Initial residual = 0.000808585, Final residual = 4.79232e-05, No Iterations 2
GAMG:  Solving for p, Initial residual = 0.0393914, Final residual = 0.000206231, No Iterations 3
time step continuity errors : sum local = 0.00544406, global = -0.00115364, cumulative = -0.28582
smoothSolver:  Solving for omega, Initial residual = 0.000135364, Final residual = 1.03586e-05, No Iterations 3
smoothSolver:  Solving for k, Initial residual = 0.000492456, Final residual = 3.79748e-05, No Iterations 3
ExecutionTime = 23.2 s  ClockTime = 23 s

Time = 73

smoothSolver:  Solving for Ux, Initial residual = 0.0318332, Final residual = 0.00141994, No Iterations 2
smoothSolver:  Solving for Uy, Initial residual = 0.0311148, Final residual = 0.00140293, No Iterations 2
smoothSolver:  Solving for Uz, Initial residual = 0.000785409, Final residual = 4.82334e-05, No Iterations 2
GAMG:  Solving for p, Initial residual = 0.0372914, Final residual = 0.000194746, No Iterations 3
time step continuity errors : sum local = 0.00505801, global = -0.00106397, cumulative = -0.286884
smoothSolver:  Solving for omega, Initial residual = 0.000133634, Final residual = 1.03752e-05, No Iterations 3
smoothSolver:  Solving for k, Initial residual = 0.000490883, Final residual = 3.77038e-05, No Iterations 3
ExecutionTime = 23.54 s  ClockTime = 24 s

Time = 74

smoothSolver:  Solving for Ux, Initial residual = 0.0312427, Final residual = 0.00141276, No Iterations 2
smoothSolver:  Solving for Uy, Initial residual = 0.0305976, Final residual = 0.0014082, No Iterations 2
smoothSolver:  Solving for Uz, Initial residual = 0.000757506, Final residual = 4.88591e-05, No Iterations 2
GAMG:  Solving for p, Initial residual = 0.0352624, Final residual = 0.000183672, No Iterations 3
time step continuity errors : sum local = 0.00469565, global = -0.000974129, cumulative = -0.287858
smoothSolver:  Solving for omega, Initial residual = 0.000130943, Final residual = 1.02699e-05, No Iterations 3
smoothSolver:  Solving for k, Initial residual = 0.000486537, Final residual = 3.76566e-05, No Iterations 3
ExecutionTime = 23.84 s  ClockTime = 24 s

Time = 75

smoothSolver:  Solving for Ux, Initial residual = 0.0308227, Final residual = 0.00138498, No Iterations 2
smoothSolver:  Solving for Uy, Initial residual = 0.0302209, Final residual = 0.00139068, No Iterations 2
smoothSolver:  Solving for Uz, Initial residual = 0.000724983, Final residual = 4.92749e-05, No Iterations 2
GAMG:  Solving for p, Initial residual = 0.0333276, Final residual = 0.000172974, No Iterations 3
time step continuity errors : sum local = 0.00435676, global = -0.000886311, cumulative = -0.288745
smoothSolver:  Solving for omega, Initial residual = 0.000127702, Final residual = 1.00295e-05, No Iterations 3
smoothSolver:  Solving for k, Initial residual = 0.000479377, Final residual = 3.7477e-05, No Iterations 3
ExecutionTime = 24.14 s  ClockTime = 24 s

Time = 76

smoothSolver:  Solving for Ux, Initial residual = 0.0306763, Final residual = 0.00134744, No Iterations 2
smoothSolver:  Solving for Uy, Initial residual = 0.0300687, Final residual = 0.00136179, No Iterations 2
smoothSolver:  Solving for Uz, Initial residual = 0.000693967, Final residual = 4.88129e-05, No Iterations 2
GAMG:  Solving for p, Initial residual = 0.0314788, Final residual = 0.00016232, No Iterations 3
time step continuity errors : sum local = 0.00403268, global = -0.000795562, cumulative = -0.28954
smoothSolver:  Solving for omega, Initial residual = 0.000123847, Final residual = 9.67108e-06, No Iterations 3
smoothSolver:  Solving for k, Initial residual = 0.000468619, Final residual = 3.6832e-05, No Iterations 3
ExecutionTime = 24.45 s  ClockTime = 25 s

Time = 77

smoothSolver:  Solving for Ux, Initial residual = 0.030775, Final residual = 0.00131648, No Iterations 2
smoothSolver:  Solving for Uy, Initial residual = 0.0301004, Final residual = 0.00133757, No Iterations 2
smoothSolver:  Solving for Uz, Initial residual = 0.000664207, Final residual = 4.71949e-05, No Iterations 2
GAMG:  Solving for p, Initial residual = 0.0297314, Final residual = 0.000152066, No Iterations 3
time step continuity errors : sum local = 0.00373068, global = -0.000703191, cumulative = -0.290243
smoothSolver:  Solving for omega, Initial residual = 0.00011972, Final residual = 9.30325e-06, No Iterations 3
smoothSolver:  Solving for k, Initial residual = 0.000451728, Final residual = 3.55676e-05, No Iterations 3
ExecutionTime = 24.75 s  ClockTime = 25 s

Time = 78

smoothSolver:  Solving for Ux, Initial residual = 0.0309126, Final residual = 0.00130017, No Iterations 2
smoothSolver:  Solving for Uy, Initial residual = 0.0302274, Final residual = 0.00134538, No Iterations 2
smoothSolver:  Solving for Uz, Initial residual = 0.000636695, Final residual = 4.49224e-05, No Iterations 2
GAMG:  Solving for p, Initial residual = 0.0280621, Final residual = 0.000142473, No Iterations 3
time step continuity errors : sum local = 0.00345487, global = -0.000614896, cumulative = -0.290858
smoothSolver:  Solving for omega, Initial residual = 0.000115185, Final residual = 8.91557e-06, No Iterations 3
smoothSolver:  Solving for k, Initial residual = 0.000433167, Final residual = 3.40698e-05, No Iterations 3
ExecutionTime = 25.05 s  ClockTime = 25 s

Time = 79

smoothSolver:  Solving for Ux, Initial residual = 0.0309405, Final residual = 0.00130577, No Iterations 2
smoothSolver:  Solving for Uy, Initial residual = 0.0303885, Final residual = 0.00135928, No Iterations 2
smoothSolver:  Solving for Uz, Initial residual = 0.000610951, Final residual = 4.26401e-05, No Iterations 2
GAMG:  Solving for p, Initial residual = 0.0264625, Final residual = 0.000134313, No Iterations 3
time step continuity errors : sum local = 0.00322134, global = -0.000533555, cumulative = -0.291392
smoothSolver:  Solving for omega, Initial residual = 0.000110585, Final residual = 8.52627e-06, No Iterations 3
smoothSolver:  Solving for k, Initial residual = 0.000414493, Final residual = 3.23682e-05, No Iterations 3
ExecutionTime = 25.36 s  ClockTime = 26 s

Time = 80

smoothSolver:  Solving for Ux, Initial residual = 0.030781, Final residual = 0.00130831, No Iterations 2
smoothSolver:  Solving for Uy, Initial residual = 0.0303862, Final residual = 0.00136256, No Iterations 2
smoothSolver:  Solving for Uz, Initial residual = 0.000585026, Final residual = 4.07206e-05, No Iterations 2
GAMG:  Solving for p, Initial residual = 0.0249358, Final residual = 0.000127273, No Iterations 3
time step continuity errors : sum local = 0.00302028, global = -0.000456499, cumulative = -0.291848
smoothSolver:  Solving for omega, Initial residual = 0.000106373, Final residual = 8.19285e-06, No Iterations 3
smoothSolver:  Solving for k, Initial residual = 0.000395936, Final residual = 3.07797e-05, No Iterations 3
ExecutionTime = 25.64 s  ClockTime = 26 s

Time = 81

smoothSolver:  Solving for Ux, Initial residual = 0.0303331, Final residual = 0.00131362, No Iterations 2
smoothSolver:  Solving for Uy, Initial residual = 0.0301575, Final residual = 0.00133961, No Iterations 2
smoothSolver:  Solving for Uz, Initial residual = 0.000561932, Final residual = 3.93671e-05, No Iterations 2
GAMG:  Solving for p, Initial residual = 0.0235002, Final residual = 0.00012072, No Iterations 3
time step continuity errors : sum local = 0.00283508, global = -0.000381209, cumulative = -0.29223
smoothSolver:  Solving for omega, Initial residual = 0.000102681, Final residual = 7.94041e-06, No Iterations 3
smoothSolver:  Solving for k, Initial residual = 0.000376836, Final residual = 2.9433e-05, No Iterations 3
ExecutionTime = 25.94 s  ClockTime = 26 s

Time = 82

smoothSolver:  Solving for Ux, Initial residual = 0.0297601, Final residual = 0.00132426, No Iterations 2
smoothSolver:  Solving for Uy, Initial residual = 0.0296455, Final residual = 0.00130921, No Iterations 2
smoothSolver:  Solving for Uz, Initial residual = 0.000543581, Final residual = 3.80757e-05, No Iterations 2
GAMG:  Solving for p, Initial residual = 0.0221583, Final residual = 0.000115405, No Iterations 3
time step continuity errors : sum local = 0.00268257, global = -0.000308036, cumulative = -0.292538
smoothSolver:  Solving for omega, Initial residual = 9.96942e-05, Final residual = 7.73554e-06, No Iterations 3
smoothSolver:  Solving for k, Initial residual = 0.000358283, Final residual = 2.82328e-05, No Iterations 3
ExecutionTime = 26.24 s  ClockTime = 26 s

Time = 83

smoothSolver:  Solving for Ux, Initial residual = 0.0290829, Final residual = 0.00132318, No Iterations 2
smoothSolver:  Solving for Uy, Initial residual = 0.0288848, Final residual = 0.00129768, No Iterations 2
smoothSolver:  Solving for Uz, Initial residual = 0.000528662, Final residual = 3.67895e-05, No Iterations 2
GAMG:  Solving for p, Initial residual = 0.0209235, Final residual = 0.000110705, No Iterations 3
time step continuity errors : sum local = 0.00254731, global = -0.000241129, cumulative = -0.292779
smoothSolver:  Solving for omega, Initial residual = 9.68421e-05, Final residual = 7.57023e-06, No Iterations 3
smoothSolver:  Solving for k, Initial residual = 0.000340604, Final residual = 2.71267e-05, No Iterations 3
ExecutionTime = 26.53 s  ClockTime = 27 s

Time = 84

smoothSolver:  Solving for Ux, Initial residual = 0.0283785, Final residual = 0.00132672, No Iterations 2
smoothSolver:  Solving for Uy, Initial residual = 0.0279714, Final residual = 0.00129865, No Iterations 2
smoothSolver:  Solving for Uz, Initial residual = 0.000512659, Final residual = 3.58289e-05, No Iterations 2
GAMG:  Solving for p, Initial residual = 0.0197707, Final residual = 0.000105935, No Iterations 3
time step continuity errors : sum local = 0.00241347, global = -0.000184596, cumulative = -0.292963
smoothSolver:  Solving for omega, Initial residual = 9.42305e-05, Final residual = 7.4381e-06, No Iterations 3
smoothSolver:  Solving for k, Initial residual = 0.000324627, Final residual = 2.61782e-05, No Iterations 3
ExecutionTime = 26.84 s  ClockTime = 27 s

Time = 85

smoothSolver:  Solving for Ux, Initial residual = 0.027665, Final residual = 0.00134113, No Iterations 2
smoothSolver:  Solving for Uy, Initial residual = 0.0270573, Final residual = 0.00129738, No Iterations 2
smoothSolver:  Solving for Uz, Initial residual = 0.000495388, Final residual = 3.5087e-05, No Iterations 2
GAMG:  Solving for p, Initial residual = 0.0186832, Final residual = 0.000101201, No Iterations 3
time step continuity errors : sum local = 0.00228369, global = -0.000140447, cumulative = -0.293104
smoothSolver:  Solving for omega, Initial residual = 9.17078e-05, Final residual = 7.33487e-06, No Iterations 3
smoothSolver:  Solving for k, Initial residual = 0.000310406, Final residual = 2.54074e-05, No Iterations 3
ExecutionTime = 27.13 s  ClockTime = 27 s

Time = 86

smoothSolver:  Solving for Ux, Initial residual = 0.0269945, Final residual = 0.00135942, No Iterations 2
smoothSolver:  Solving for Uy, Initial residual = 0.0261255, Final residual = 0.00130167, No Iterations 2
smoothSolver:  Solving for Uz, Initial residual = 0.00047522, Final residual = 3.43952e-05, No Iterations 2
GAMG:  Solving for p, Initial residual = 0.017645, Final residual = 9.67638e-05, No Iterations 3
time step continuity errors : sum local = 0.00216393, global = -0.000109493, cumulative = -0.293213
smoothSolver:  Solving for omega, Initial residual = 8.90569e-05, Final residual = 7.23464e-06, No Iterations 3
smoothSolver:  Solving for k, Initial residual = 0.000297936, Final residual = 2.4733e-05, No Iterations 3
ExecutionTime = 27.44 s  ClockTime = 28 s

Time = 87

smoothSolver:  Solving for Ux, Initial residual = 0.0264097, Final residual = 0.00137659, No Iterations 2
smoothSolver:  Solving for Uy, Initial residual = 0.0252666, Final residual = 0.0013066, No Iterations 2
smoothSolver:  Solving for Uz, Initial residual = 0.000452988, Final residual = 3.37278e-05, No Iterations 2
GAMG:  Solving for p, Initial residual = 0.0166583, Final residual = 9.22292e-05, No Iterations 3
time step continuity errors : sum local = 0.00204528, global = -9.06487e-05, cumulative = -0.293304
smoothSolver:  Solving for omega, Initial residual = 8.64467e-05, Final residual = 7.1414e-06, No Iterations 3
smoothSolver:  Solving for k, Initial residual = 0.000287052, Final residual = 2.41402e-05, No Iterations 3
ExecutionTime = 27.74 s  ClockTime = 28 s

Time = 88

smoothSolver:  Solving for Ux, Initial residual = 0.0258181, Final residual = 0.00139513, No Iterations 2
smoothSolver:  Solving for Uy, Initial residual = 0.0244281, Final residual = 0.0013056, No Iterations 2
smoothSolver:  Solving for Uz, Initial residual = 0.000427877, Final residual = 3.31444e-05, No Iterations 2
GAMG:  Solving for p, Initial residual = 0.0157188, Final residual = 8.80507e-05, No Iterations 3
time step continuity errors : sum local = 0.00193771, global = -8.24597e-05, cumulative = -0.293386
smoothSolver:  Solving for omega, Initial residual = 8.37051e-05, Final residual = 7.03013e-06, No Iterations 3
smoothSolver:  Solving for k, Initial residual = 0.000277833, Final residual = 2.36211e-05, No Iterations 3
ExecutionTime = 28.07 s  ClockTime = 28 s

Time = 89

smoothSolver:  Solving for Ux, Initial residual = 0.0251822, Final residual = 0.00141416, No Iterations 2
smoothSolver:  Solving for Uy, Initial residual = 0.023497, Final residual = 0.00130303, No Iterations 2
smoothSolver:  Solving for Uz, Initial residual = 0.000402686, Final residual = 3.25764e-05, No Iterations 2
GAMG:  Solving for p, Initial residual = 0.0148368, Final residual = 8.47623e-05, No Iterations 3
time step continuity errors : sum local = 0.00185259, global = -8.35158e-05, cumulative = -0.29347
smoothSolver:  Solving for omega, Initial residual = 8.10466e-05, Final residual = 6.93077e-06, No Iterations 3
smoothSolver:  Solving for k, Initial residual = 0.000269438, Final residual = 2.31803e-05, No Iterations 3
ExecutionTime = 28.37 s  ClockTime = 29 s

Time = 90

smoothSolver:  Solving for Ux, Initial residual = 0.0244765, Final residual = 0.00143272, No Iterations 2
smoothSolver:  Solving for Uy, Initial residual = 0.0224699, Final residual = 0.00129519, No Iterations 2
smoothSolver:  Solving for Uz, Initial residual = 0.000379451, Final residual = 3.20338e-05, No Iterations 2
GAMG:  Solving for p, Initial residual = 0.0139954, Final residual = 8.27288e-05, No Iterations 3
time step continuity errors : sum local = 0.00179722, global = -9.27439e-05, cumulative = -0.293563
smoothSolver:  Solving for omega, Initial residual = 7.88833e-05, Final residual = 6.83335e-06, No Iterations 3
smoothSolver:  Solving for k, Initial residual = 0.000261933, Final residual = 2.28143e-05, No Iterations 3
ExecutionTime = 28.68 s  ClockTime = 29 s

Time = 91

smoothSolver:  Solving for Ux, Initial residual = 0.0237244, Final residual = 0.00144596, No Iterations 2
smoothSolver:  Solving for Uy, Initial residual = 0.0213733, Final residual = 0.00128122, No Iterations 2
smoothSolver:  Solving for Uz, Initial residual = 0.00035792, Final residual = 3.15287e-05, No Iterations 2
GAMG:  Solving for p, Initial residual = 0.013186, Final residual = 8.13079e-05, No Iterations 3
time step continuity errors : sum local = 0.00175709, global = -0.000108447, cumulative = -0.293671
smoothSolver:  Solving for omega, Initial residual = 7.68809e-05, Final residual = 6.75233e-06, No Iterations 3
smoothSolver:  Solving for k, Initial residual = 0.000255308, Final residual = 2.24943e-05, No Iterations 3
ExecutionTime = 29 s  ClockTime = 29 s

Time = 92

smoothSolver:  Solving for Ux, Initial residual = 0.0229195, Final residual = 0.00145182, No Iterations 2
smoothSolver:  Solving for Uy, Initial residual = 0.0202554, Final residual = 0.00126126, No Iterations 2
smoothSolver:  Solving for Uz, Initial residual = 0.000338827, Final residual = 3.1041e-05, No Iterations 2
GAMG:  Solving for p, Initial residual = 0.0124185, Final residual = 8.05283e-05, No Iterations 3
time step continuity errors : sum local = 0.00173247, global = -0.000128282, cumulative = -0.293799
smoothSolver:  Solving for omega, Initial residual = 7.52766e-05, Final residual = 6.66846e-06, No Iterations 3
smoothSolver:  Solving for k, Initial residual = 0.000249287, Final residual = 2.2196e-05, No Iterations 3
ExecutionTime = 29.31 s  ClockTime = 30 s

Time = 93

smoothSolver:  Solving for Ux, Initial residual = 0.0221113, Final residual = 0.00145264, No Iterations 2
smoothSolver:  Solving for Uy, Initial residual = 0.019156, Final residual = 0.00123575, No Iterations 2
smoothSolver:  Solving for Uz, Initial residual = 0.000324219, Final residual = 3.0591e-05, No Iterations 2
GAMG:  Solving for p, Initial residual = 0.0117008, Final residual = 7.90722e-05, No Iterations 3
time step continuity errors : sum local = 0.00169473, global = -0.000149295, cumulative = -0.293949
smoothSolver:  Solving for omega, Initial residual = 7.39524e-05, Final residual = 6.57971e-06, No Iterations 3
smoothSolver:  Solving for k, Initial residual = 0.000243853, Final residual = 2.19437e-05, No Iterations 3
ExecutionTime = 29.63 s  ClockTime = 30 s

Time = 94

smoothSolver:  Solving for Ux, Initial residual = 0.021287, Final residual = 0.00144691, No Iterations 2
smoothSolver:  Solving for Uy, Initial residual = 0.018084, Final residual = 0.00120779, No Iterations 2
smoothSolver:  Solving for Uz, Initial residual = 0.000312237, Final residual = 3.0145e-05, No Iterations 2
GAMG:  Solving for p, Initial residual = 0.0110261, Final residual = 7.69696e-05, No Iterations 3
time step continuity errors : sum local = 0.00164444, global = -0.000169309, cumulative = -0.294118
smoothSolver:  Solving for omega, Initial residual = 7.27784e-05, Final residual = 6.48807e-06, No Iterations 3
smoothSolver:  Solving for k, Initial residual = 0.000239092, Final residual = 2.16984e-05, No Iterations 3
ExecutionTime = 29.93 s  ClockTime = 30 s

Time = 95

smoothSolver:  Solving for Ux, Initial residual = 0.0204348, Final residual = 0.00143553, No Iterations 2
smoothSolver:  Solving for Uy, Initial residual = 0.0170249, Final residual = 0.00117641, No Iterations 2
smoothSolver:  Solving for Uz, Initial residual = 0.000302458, Final residual = 2.97029e-05, No Iterations 2
GAMG:  Solving for p, Initial residual = 0.0103903, Final residual = 7.43119e-05, No Iterations 3
time step continuity errors : sum local = 0.00158341, global = -0.000186486, cumulative = -0.294304
smoothSolver:  Solving for omega, Initial residual = 7.16532e-05, Final residual = 6.40134e-06, No Iterations 3
smoothSolver:  Solving for k, Initial residual = 0.000234631, Final residual = 2.14483e-05, No Iterations 3
ExecutionTime = 30.28 s  ClockTime = 30 s

Time = 96

smoothSolver:  Solving for Ux, Initial residual = 0.0195493, Final residual = 0.00142084, No Iterations 2
smoothSolver:  Solving for Uy, Initial residual = 0.015987, Final residual = 0.00114291, No Iterations 2
smoothSolver:  Solving for Uz, Initial residual = 0.000292629, Final residual = 2.92551e-05, No Iterations 2
GAMG:  Solving for p, Initial residual = 0.00978673, Final residual = 7.10634e-05, No Iterations 3
time step continuity errors : sum local = 0.00151073, global = -0.000199981, cumulative = -0.294504
smoothSolver:  Solving for omega, Initial residual = 7.04856e-05, Final residual = 6.32279e-06, No Iterations 3
smoothSolver:  Solving for k, Initial residual = 0.000229976, Final residual = 2.11722e-05, No Iterations 3
ExecutionTime = 30.58 s  ClockTime = 31 s

Time = 97

smoothSolver:  Solving for Ux, Initial residual = 0.0186546, Final residual = 0.00140246, No Iterations 2
smoothSolver:  Solving for Uy, Initial residual = 0.015009, Final residual = 0.00110775, No Iterations 2
smoothSolver:  Solving for Uz, Initial residual = 0.000281318, Final residual = 1.39795e-05, No Iterations 3
GAMG:  Solving for p, Initial residual = 0.00921774, Final residual = 6.79089e-05, No Iterations 3
time step continuity errors : sum local = 0.00144074, global = -0.000207114, cumulative = -0.294712
smoothSolver:  Solving for omega, Initial residual = 6.99484e-05, Final residual = 6.30378e-06, No Iterations 3
smoothSolver:  Solving for k, Initial residual = 0.000227062, Final residual = 2.09661e-05, No Iterations 3
ExecutionTime = 30.93 s  ClockTime = 31 s

Time = 98

smoothSolver:  Solving for Ux, Initial residual = 0.0178193, Final residual = 0.00139336, No Iterations 2
smoothSolver:  Solving for Uy, Initial residual = 0.0141317, Final residual = 0.00108268, No Iterations 2
smoothSolver:  Solving for Uz, Initial residual = 0.000268642, Final residual = 1.37655e-05, No Iterations 3
GAMG:  Solving for p, Initial residual = 0.00867846, Final residual = 6.45967e-05, No Iterations 3
time step continuity errors : sum local = 0.00136847, global = -0.000209242, cumulative = -0.294921
smoothSolver:  Solving for omega, Initial residual = 6.92196e-05, Final residual = 6.27482e-06, No Iterations 3
smoothSolver:  Solving for k, Initial residual = 0.000222821, Final residual = 2.07315e-05, No Iterations 3
ExecutionTime = 31.27 s  ClockTime = 31 s

Time = 99

smoothSolver:  Solving for Ux, Initial residual = 0.0170189, Final residual = 0.00138634, No Iterations 2
[...]
smoothSolver:  Solving for Uz, Initial residual = 2.07352e-06, Final residual = 9.53337e-07, No Iterations 1
GAMG:  Solving for p, Initial residual = 1.89953e-05, Final residual = 5.33834e-07, No Iterations 2
time step continuity errors : sum local = 1.05052e-05, global = -4.52521e-07, cumulative = -0.296787
smoothSolver:  Solving for omega, Initial residual = 1.53771e-06, Final residual = 6.96947e-07, No Iterations 1
smoothSolver:  Solving for k, Initial residual = 3.9967e-06, Final residual = 8.93832e-07, No Iterations 2
ExecutionTime = 161.73 s  ClockTime = 162 s

Time = 479

smoothSolver:  Solving for Ux, Initial residual = 6.23633e-05, Final residual = 5.38855e-06, No Iterations 3
smoothSolver:  Solving for Uy, Initial residual = 0.000115176, Final residual = 9.26202e-06, No Iterations 3
smoothSolver:  Solving for Uz, Initial residual = 2.06525e-06, Final residual = 9.53843e-07, No Iterations 1
GAMG:  Solving for p, Initial residual = 1.85936e-05, Final residual = 5.23231e-07, No Iterations 2
time step continuity errors : sum local = 1.02964e-05, global = -4.48711e-07, cumulative = -0.296787
smoothSolver:  Solving for omega, Initial residual = 1.53463e-06, Final residual = 6.96396e-07, No Iterations 1
smoothSolver:  Solving for k, Initial residual = 3.99959e-06, Final residual = 8.95573e-07, No Iterations 2
ExecutionTime = 162.06 s  ClockTime = 162 s

Time = 480

smoothSolver:  Solving for Ux, Initial residual = 6.21051e-05, Final residual = 5.39546e-06, No Iterations 3
smoothSolver:  Solving for Uy, Initial residual = 0.000114391, Final residual = 9.23748e-06, No Iterations 3
smoothSolver:  Solving for Uz, Initial residual = 2.05753e-06, Final residual = 9.54412e-07, No Iterations 1
GAMG:  Solving for p, Initial residual = 1.82159e-05, Final residual = 5.13101e-07, No Iterations 2
time step continuity errors : sum local = 1.0097e-05, global = -4.4357e-07, cumulative = -0.296788
smoothSolver:  Solving for omega, Initial residual = 1.53207e-06, Final residual = 6.96108e-07, No Iterations 1
smoothSolver:  Solving for k, Initial residual = 4.00189e-06, Final residual = 8.97196e-07, No Iterations 2
ExecutionTime = 162.37 s  ClockTime = 163 s

Time = 481

smoothSolver:  Solving for Ux, Initial residual = 6.18725e-05, Final residual = 5.4018e-06, No Iterations 3
smoothSolver:  Solving for Uy, Initial residual = 0.000113651, Final residual = 9.21252e-06, No Iterations 3
smoothSolver:  Solving for Uz, Initial residual = 2.05039e-06, Final residual = 9.54996e-07, No Iterations 1
GAMG:  Solving for p, Initial residual = 1.78592e-05, Final residual = 5.03774e-07, No Iterations 2
time step continuity errors : sum local = 9.91333e-06, global = -4.37543e-07, cumulative = -0.296788
smoothSolver:  Solving for omega, Initial residual = 1.53028e-06, Final residual = 6.9609e-07, No Iterations 1
smoothSolver:  Solving for k, Initial residual = 4.00341e-06, Final residual = 8.98693e-07, No Iterations 2
ExecutionTime = 162.7 s  ClockTime = 163 s

Time = 482

smoothSolver:  Solving for Ux, Initial residual = 6.16581e-05, Final residual = 5.40733e-06, No Iterations 3
smoothSolver:  Solving for Uy, Initial residual = 0.000112945, Final residual = 9.18809e-06, No Iterations 3
smoothSolver:  Solving for Uz, Initial residual = 2.04375e-06, Final residual = 9.55618e-07, No Iterations 1
GAMG:  Solving for p, Initial residual = 1.75266e-05, Final residual = 4.95189e-07, No Iterations 2
time step continuity errors : sum local = 9.74428e-06, global = -4.31358e-07, cumulative = -0.296789
smoothSolver:  Solving for omega, Initial residual = 1.529e-06, Final residual = 6.96277e-07, No Iterations 1
smoothSolver:  Solving for k, Initial residual = 4.00432e-06, Final residual = 9.00075e-07, No Iterations 2
ExecutionTime = 163 s  ClockTime = 163 s

Time = 483

smoothSolver:  Solving for Ux, Initial residual = 6.14504e-05, Final residual = 5.41265e-06, No Iterations 3
smoothSolver:  Solving for Uy, Initial residual = 0.00011225, Final residual = 9.15935e-06, No Iterations 3
smoothSolver:  Solving for Uz, Initial residual = 2.03769e-06, Final residual = 9.56279e-07, No Iterations 1
GAMG:  Solving for p, Initial residual = 1.72127e-05, Final residual = 4.87332e-07, No Iterations 2
time step continuity errors : sum local = 9.58957e-06, global = -4.25219e-07, cumulative = -0.296789
smoothSolver:  Solving for omega, Initial residual = 1.52815e-06, Final residual = 6.96669e-07, No Iterations 1
smoothSolver:  Solving for k, Initial residual = 4.00453e-06, Final residual = 9.0131e-07, No Iterations 2
ExecutionTime = 163.33 s  ClockTime = 164 s

Time = 484

smoothSolver:  Solving for Ux, Initial residual = 6.12476e-05, Final residual = 5.41807e-06, No Iterations 3
smoothSolver:  Solving for Uy, Initial residual = 0.000111539, Final residual = 9.12866e-06, No Iterations 3
smoothSolver:  Solving for Uz, Initial residual = 2.03218e-06, Final residual = 9.56926e-07, No Iterations 1
GAMG:  Solving for p, Initial residual = 1.69144e-05, Final residual = 4.8002e-07, No Iterations 2
time step continuity errors : sum local = 9.44558e-06, global = -4.1901e-07, cumulative = -0.29679
smoothSolver:  Solving for omega, Initial residual = 1.52763e-06, Final residual = 6.97107e-07, No Iterations 1
smoothSolver:  Solving for k, Initial residual = 4.00418e-06, Final residual = 9.02386e-07, No Iterations 2
ExecutionTime = 163.63 s  ClockTime = 164 s

Time = 485

smoothSolver:  Solving for Ux, Initial residual = 6.10457e-05, Final residual = 5.42368e-06, No Iterations 3
smoothSolver:  Solving for Uy, Initial residual = 0.000110844, Final residual = 9.09829e-06, No Iterations 3
smoothSolver:  Solving for Uz, Initial residual = 2.02725e-06, Final residual = 9.57545e-07, No Iterations 1
GAMG:  Solving for p, Initial residual = 1.66423e-05, Final residual = 4.73093e-07, No Iterations 2
time step continuity errors : sum local = 9.30917e-06, global = -4.11319e-07, cumulative = -0.29679
smoothSolver:  Solving for omega, Initial residual = 1.52736e-06, Final residual = 6.97685e-07, No Iterations 1
smoothSolver:  Solving for k, Initial residual = 4.0033e-06, Final residual = 9.03286e-07, No Iterations 2
ExecutionTime = 163.94 s  ClockTime = 164 s

Time = 486

smoothSolver:  Solving for Ux, Initial residual = 6.08481e-05, Final residual = 5.42923e-06, No Iterations 3
smoothSolver:  Solving for Uy, Initial residual = 0.000110159, Final residual = 9.06966e-06, No Iterations 3
smoothSolver:  Solving for Uz, Initial residual = 2.02271e-06, Final residual = 9.58144e-07, No Iterations 1
GAMG:  Solving for p, Initial residual = 1.6385e-05, Final residual = 4.6656e-07, No Iterations 2
time step continuity errors : sum local = 9.18052e-06, global = -4.0263e-07, cumulative = -0.29679
smoothSolver:  Solving for omega, Initial residual = 1.52727e-06, Final residual = 6.98269e-07, No Iterations 1
smoothSolver:  Solving for k, Initial residual = 4.00188e-06, Final residual = 9.04063e-07, No Iterations 2
ExecutionTime = 164.28 s  ClockTime = 164 s

Time = 487

smoothSolver:  Solving for Ux, Initial residual = 6.06428e-05, Final residual = 5.43367e-06, No Iterations 3
smoothSolver:  Solving for Uy, Initial residual = 0.000109481, Final residual = 9.04217e-06, No Iterations 3
smoothSolver:  Solving for Uz, Initial residual = 2.01844e-06, Final residual = 9.58681e-07, No Iterations 1
GAMG:  Solving for p, Initial residual = 1.61414e-05, Final residual = 4.60367e-07, No Iterations 2
time step continuity errors : sum local = 9.05856e-06, global = -3.93567e-07, cumulative = -0.296791
smoothSolver:  Solving for omega, Initial residual = 1.52741e-06, Final residual = 6.98844e-07, No Iterations 1
smoothSolver:  Solving for k, Initial residual = 3.99986e-06, Final residual = 9.04768e-07, No Iterations 2
ExecutionTime = 164.6 s  ClockTime = 165 s

Time = 488

smoothSolver:  Solving for Ux, Initial residual = 6.04335e-05, Final residual = 5.43712e-06, No Iterations 3
smoothSolver:  Solving for Uy, Initial residual = 0.000108802, Final residual = 9.01617e-06, No Iterations 3
smoothSolver:  Solving for Uz, Initial residual = 2.01441e-06, Final residual = 9.59179e-07, No Iterations 1
GAMG:  Solving for p, Initial residual = 1.59117e-05, Final residual = 4.54373e-07, No Iterations 2
time step continuity errors : sum local = 8.94054e-06, global = -3.84416e-07, cumulative = -0.296791
smoothSolver:  Solving for omega, Initial residual = 1.52762e-06, Final residual = 6.99394e-07, No Iterations 1
smoothSolver:  Solving for k, Initial residual = 3.99732e-06, Final residual = 9.05405e-07, No Iterations 2
ExecutionTime = 164.92 s  ClockTime = 165 s

Time = 489

smoothSolver:  Solving for Ux, Initial residual = 6.02188e-05, Final residual = 5.43968e-06, No Iterations 3
smoothSolver:  Solving for Uy, Initial residual = 0.000108146, Final residual = 8.99353e-06, No Iterations 3
smoothSolver:  Solving for Uz, Initial residual = 2.01061e-06, Final residual = 9.59641e-07, No Iterations 1
GAMG:  Solving for p, Initial residual = 1.56893e-05, Final residual = 4.48576e-07, No Iterations 2
time step continuity errors : sum local = 8.82638e-06, global = -3.75891e-07, cumulative = -0.296792
smoothSolver:  Solving for omega, Initial residual = 1.52803e-06, Final residual = 7.00024e-07, No Iterations 1
smoothSolver:  Solving for k, Initial residual = 3.99432e-06, Final residual = 9.05931e-07, No Iterations 2
ExecutionTime = 165.23 s  ClockTime = 165 s

Time = 490

smoothSolver:  Solving for Ux, Initial residual = 5.99978e-05, Final residual = 5.44099e-06, No Iterations 3
smoothSolver:  Solving for Uy, Initial residual = 0.000107503, Final residual = 8.97294e-06, No Iterations 3
smoothSolver:  Solving for Uz, Initial residual = 2.00704e-06, Final residual = 9.60173e-07, No Iterations 1
GAMG:  Solving for p, Initial residual = 1.5473e-05, Final residual = 4.43002e-07, No Iterations 2
time step continuity errors : sum local = 8.71662e-06, global = -3.6608e-07, cumulative = -0.296792
smoothSolver:  Solving for omega, Initial residual = 1.52856e-06, Final residual = 7.00849e-07, No Iterations 1
smoothSolver:  Solving for k, Initial residual = 3.99114e-06, Final residual = 9.06372e-07, No Iterations 2
ExecutionTime = 165.54 s  ClockTime = 166 s

Time = 491

smoothSolver:  Solving for Ux, Initial residual = 5.97712e-05, Final residual = 5.441e-06, No Iterations 3
smoothSolver:  Solving for Uy, Initial residual = 0.000106851, Final residual = 8.9554e-06, No Iterations 3
smoothSolver:  Solving for Uz, Initial residual = 2.00369e-06, Final residual = 9.60694e-07, No Iterations 1
GAMG:  Solving for p, Initial residual = 1.52653e-05, Final residual = 4.37567e-07, No Iterations 2
time step continuity errors : sum local = 8.60961e-06, global = -3.54155e-07, cumulative = -0.296792
smoothSolver:  Solving for omega, Initial residual = 1.52925e-06, Final residual = 7.01736e-07, No Iterations 1
smoothSolver:  Solving for k, Initial residual = 3.98779e-06, Final residual = 9.0669e-07, No Iterations 2
ExecutionTime = 165.84 s  ClockTime = 166 s

Time = 492

smoothSolver:  Solving for Ux, Initial residual = 5.95325e-05, Final residual = 5.44066e-06, No Iterations 3
smoothSolver:  Solving for Uy, Initial residual = 0.000106192, Final residual = 8.93755e-06, No Iterations 3
smoothSolver:  Solving for Uz, Initial residual = 2.00055e-06, Final residual = 9.61118e-07, No Iterations 1
GAMG:  Solving for p, Initial residual = 1.50674e-05, Final residual = 4.32165e-07, No Iterations 2
time step continuity errors : sum local = 8.50325e-06, global = -3.43115e-07, cumulative = -0.296793
smoothSolver:  Solving for omega, Initial residual = 1.5302e-06, Final residual = 7.02677e-07, No Iterations 1
smoothSolver:  Solving for k, Initial residual = 3.9843e-06, Final residual = 9.06862e-07, No Iterations 2
ExecutionTime = 166.17 s  ClockTime = 166 s

Time = 493

smoothSolver:  Solving for Ux, Initial residual = 5.92813e-05, Final residual = 5.43964e-06, No Iterations 3
smoothSolver:  Solving for Uy, Initial residual = 0.00010552, Final residual = 8.91773e-06, No Iterations 3
smoothSolver:  Solving for Uz, Initial residual = 1.99761e-06, Final residual = 9.61475e-07, No Iterations 1
GAMG:  Solving for p, Initial residual = 1.48704e-05, Final residual = 4.26957e-07, No Iterations 2
time step continuity errors : sum local = 8.4007e-06, global = -3.32772e-07, cumulative = -0.296793
smoothSolver:  Solving for omega, Initial residual = 1.53123e-06, Final residual = 7.0365e-07, No Iterations 1
smoothSolver:  Solving for k, Initial residual = 3.98067e-06, Final residual = 9.06896e-07, No Iterations 2
ExecutionTime = 166.48 s  ClockTime = 167 s

Time = 494

smoothSolver:  Solving for Ux, Initial residual = 5.90197e-05, Final residual = 5.43825e-06, No Iterations 3
smoothSolver:  Solving for Uy, Initial residual = 0.000104824, Final residual = 8.89564e-06, No Iterations 3
smoothSolver:  Solving for Uz, Initial residual = 1.99484e-06, Final residual = 9.61807e-07, No Iterations 1
GAMG:  Solving for p, Initial residual = 1.46719e-05, Final residual = 4.22175e-07, No Iterations 2
time step continuity errors : sum local = 8.30655e-06, global = -3.2477e-07, cumulative = -0.296793
smoothSolver:  Solving for omega, Initial residual = 1.53221e-06, Final residual = 7.04601e-07, No Iterations 1
smoothSolver:  Solving for k, Initial residual = 3.97696e-06, Final residual = 9.06758e-07, No Iterations 2
ExecutionTime = 166.81 s  ClockTime = 167 s

Time = 495

smoothSolver:  Solving for Ux, Initial residual = 5.87532e-05, Final residual = 5.4367e-06, No Iterations 3
smoothSolver:  Solving for Uy, Initial residual = 0.000104127, Final residual = 8.87205e-06, No Iterations 3
smoothSolver:  Solving for Uz, Initial residual = 1.9925e-06, Final residual = 9.62162e-07, No Iterations 1
GAMG:  Solving for p, Initial residual = 1.44693e-05, Final residual = 4.17761e-07, No Iterations 2
time step continuity errors : sum local = 8.21964e-06, global = -3.17912e-07, cumulative = -0.296794
smoothSolver:  Solving for omega, Initial residual = 1.53305e-06, Final residual = 7.05359e-07, No Iterations 1
smoothSolver:  Solving for k, Initial residual = 3.97302e-06, Final residual = 9.06446e-07, No Iterations 2
ExecutionTime = 167.14 s  ClockTime = 167 s

Time = 496

smoothSolver:  Solving for Ux, Initial residual = 5.84859e-05, Final residual = 5.43424e-06, No Iterations 3
smoothSolver:  Solving for Uy, Initial residual = 0.000103424, Final residual = 8.84741e-06, No Iterations 3
smoothSolver:  Solving for Uz, Initial residual = 1.99052e-06, Final residual = 9.62525e-07, No Iterations 1
GAMG:  Solving for p, Initial residual = 1.42745e-05, Final residual = 4.13739e-07, No Iterations 2
time step continuity errors : sum local = 8.14045e-06, global = -3.10044e-07, cumulative = -0.296794
smoothSolver:  Solving for omega, Initial residual = 1.53365e-06, Final residual = 7.05886e-07, No Iterations 1
smoothSolver:  Solving for k, Initial residual = 3.96879e-06, Final residual = 9.05956e-07, No Iterations 2
ExecutionTime = 167.46 s  ClockTime = 168 s

Time = 497

smoothSolver:  Solving for Ux, Initial residual = 5.82175e-05, Final residual = 5.43051e-06, No Iterations 3
smoothSolver:  Solving for Uy, Initial residual = 0.000102726, Final residual = 8.8203e-06, No Iterations 3
smoothSolver:  Solving for Uz, Initial residual = 1.98873e-06, Final residual = 9.62851e-07, No Iterations 1
GAMG:  Solving for p, Initial residual = 1.40941e-05, Final residual = 4.09942e-07, No Iterations 2
time step continuity errors : sum local = 8.06571e-06, global = -3.01174e-07, cumulative = -0.296794
smoothSolver:  Solving for omega, Initial residual = 1.53389e-06, Final residual = 7.06154e-07, No Iterations 1
smoothSolver:  Solving for k, Initial residual = 3.96424e-06, Final residual = 9.05308e-07, No Iterations 2
ExecutionTime = 167.77 s  ClockTime = 168 s

Time = 498

smoothSolver:  Solving for Ux, Initial residual = 5.79468e-05, Final residual = 5.42553e-06, No Iterations 3
smoothSolver:  Solving for Uy, Initial residual = 0.000102039, Final residual = 8.79107e-06, No Iterations 3
smoothSolver:  Solving for Uz, Initial residual = 1.98725e-06, Final residual = 9.63161e-07, No Iterations 1
GAMG:  Solving for p, Initial residual = 1.39246e-05, Final residual = 4.06053e-07, No Iterations 2
time step continuity errors : sum local = 7.98914e-06, global = -2.91514e-07, cumulative = -0.296794
smoothSolver:  Solving for omega, Initial residual = 1.53353e-06, Final residual = 7.06153e-07, No Iterations 1
smoothSolver:  Solving for k, Initial residual = 3.95942e-06, Final residual = 9.04511e-07, No Iterations 2
ExecutionTime = 168.11 s  ClockTime = 168 s

Time = 499

smoothSolver:  Solving for Ux, Initial residual = 5.76804e-05, Final residual = 5.42018e-06, No Iterations 3
smoothSolver:  Solving for Uy, Initial residual = 0.000101364, Final residual = 8.76211e-06, No Iterations 3
smoothSolver:  Solving for Uz, Initial residual = 1.98599e-06, Final residual = 9.63469e-07, No Iterations 1
GAMG:  Solving for p, Initial residual = 1.37591e-05, Final residual = 4.01924e-07, No Iterations 2
time step continuity errors : sum local = 7.90786e-06, global = -2.80879e-07, cumulative = -0.296795
smoothSolver:  Solving for omega, Initial residual = 1.53267e-06, Final residual = 7.05919e-07, No Iterations 1
smoothSolver:  Solving for k, Initial residual = 3.95437e-06, Final residual = 9.03572e-07, No Iterations 2
ExecutionTime = 168.42 s  ClockTime = 169 s

Time = 500

smoothSolver:  Solving for Ux, Initial residual = 5.74275e-05, Final residual = 5.41473e-06, No Iterations 3
smoothSolver:  Solving for Uy, Initial residual = 0.000100702, Final residual = 8.7312e-06, No Iterations 3
smoothSolver:  Solving for Uz, Initial residual = 1.98503e-06, Final residual = 9.63799e-07, No Iterations 1
GAMG:  Solving for p, Initial residual = 1.35997e-05, Final residual = 3.97437e-07, No Iterations 2
time step continuity errors : sum local = 7.81954e-06, global = -2.69329e-07, cumulative = -0.296795
smoothSolver:  Solving for omega, Initial residual = 1.53126e-06, Final residual = 7.05404e-07, No Iterations 1
smoothSolver:  Solving for k, Initial residual = 3.94905e-06, Final residual = 9.02512e-07, No Iterations 2
ExecutionTime = 168.74 s  ClockTime = 169 s

Time = 501

smoothSolver:  Solving for Ux, Initial residual = 5.71899e-05, Final residual = 5.40974e-06, No Iterations 3
smoothSolver:  Solving for Uy, Initial residual = 0.000100055, Final residual = 8.69791e-06, No Iterations 3
smoothSolver:  Solving for Uz, Initial residual = 1.98443e-06, Final residual = 9.64183e-07, No Iterations 1
GAMG:  Solving for p, Initial residual = 1.34519e-05, Final residual = 3.92652e-07, No Iterations 2
time step continuity errors : sum local = 7.72535e-06, global = -2.57054e-07, cumulative = -0.296795
smoothSolver:  Solving for omega, Initial residual = 1.52941e-06, Final residual = 7.04693e-07, No Iterations 1
smoothSolver:  Solving for k, Initial residual = 3.94333e-06, Final residual = 9.01341e-07, No Iterations 2
ExecutionTime = 169.04 s  ClockTime = 169 s

Time = 502

smoothSolver:  Solving for Ux, Initial residual = 5.69717e-05, Final residual = 5.40447e-06, No Iterations 3
smoothSolver:  Solving for Uy, Initial residual = 9.94123e-05, Final residual = 8.66342e-06, No Iterations 3
smoothSolver:  Solving for Uz, Initial residual = 1.98421e-06, Final residual = 9.64649e-07, No Iterations 1
GAMG:  Solving for p, Initial residual = 1.33117e-05, Final residual = 3.87582e-07, No Iterations 2
time step continuity errors : sum local = 7.62556e-06, global = -2.44755e-07, cumulative = -0.296796
smoothSolver:  Solving for omega, Initial residual = 1.52731e-06, Final residual = 7.03781e-07, No Iterations 1
smoothSolver:  Solving for k, Initial residual = 3.93738e-06, Final residual = 9.00065e-07, No Iterations 2
ExecutionTime = 169.37 s  ClockTime = 170 s


SIMPLE solution converged in 502 iterations

End

Finalising parallel run
